/*---------------------------------------------------------------------------*\
  =========                 |
  \\      /  F ield         | OpenFOAM: The Open Source CFD Toolbox
   \\    /   O peration     | Website:  https://openfoam.org
    \\  /    A nd           | Version:  9
     \\/     M anipulation  |
\*---------------------------------------------------------------------------*/
Build  : 9-c96968adf6d8
Exec   : pisoFoam
Date   : Aug 18 2025
Time   : 01:57:27
Host   : "DESKTOP-O5P3PJU"
PID    : 56757
I/O    : uncollated
Case   : /mnt/c/Users/Lamap/Downloads/OpenUQFOAM/examples/experiments/multiParameters
nProcs : 1
sigFpe : Enabling floating point exception trapping (FOAM_SIGFPE).
fileModificationChecking : Monitoring run-time modified files using timeStampMaster (fileModificationSkew 10)
allowSystemOperations : Allowing user-supplied system call operations

// * * * * * * * * * * * * * * * * * * * * * * * * * * * * * * * * * * * * * //
Create time

Create mesh for time = 0

Reading field p

Reading field U

Reading/calculating face flux field phi

Selecting incompressible transport model Newtonian
Selecting turbulence model type RAS
Selecting RAS turbulence model kEpsilon
kEpsilonCoeffs
{
    Cmu             0.09;
    C1              1.44;
    C2              1.92;
    sigmaK          1;
    sigmaEps        1.3;
    C3              0;
    sigmak          1;
}

No MRF models present

No fvModels present
No fvConstraints present

Starting time loop

Time = 0.005

Courant Number mean: 0 max: 0
smoothSolver:  Solving for Ux, Initial residual = 1, Final residual = 1.1324e-06, No Iterations 5
smoothSolver:  Solving for Uy, Initial residual = 1, Final residual = 6.71435e-07, No Iterations 5
GAMG:  Solving for p, Initial residual = 1, Final residual = 0.0378382, No Iterations 2
time step continuity errors : sum local = 5.90272e-06, global = 6.61744e-22, cumulative = 6.61744e-22
GAMG:  Solving for p, Initial residual = 0.0371368, Final residual = 6.05335e-07, No Iterations 10
time step continuity errors : sum local = 2.15891e-10, global = -4.29423e-21, cumulative = -3.63249e-21
smoothSolver:  Solving for epsilon, Initial residual = 0.0321908, Final residual = 4.05273e-06, No Iterations 3
smoothSolver:  Solving for k, Initial residual = 1, Final residual = 9.18966e-07, No Iterations 5
ExecutionTime = 0.04 s  ClockTime = 0 s

Time = 0.01

Courant Number mean: 0.000539844 max: 0.00667001
smoothSolver:  Solving for Ux, Initial residual = 0.324843, Final residual = 3.0409e-06, No Iterations 4
smoothSolver:  Solving for Uy, Initial residual = 0.267527, Final residual = 2.20413e-06, No Iterations 4
GAMG:  Solving for p, Initial residual = 0.141522, Final residual = 0.0132441, No Iterations 1
time step continuity errors : sum local = 4.31766e-06, global = -3.30872e-21, cumulative = -6.94121e-21
GAMG:  Solving for p, Initial residual = 0.0132111, Final residual = 8.75421e-07, No Iterations 7
time step continuity errors : sum local = 3.89106e-10, global = 4.00213e-21, cumulative = -2.93908e-21
smoothSolver:  Solving for epsilon, Initial residual = 0.0334225, Final residual = 4.16589e-06, No Iterations 3
smoothSolver:  Solving for k, Initial residual = 0.85477, Final residual = 6.9929e-07, No Iterations 5
ExecutionTime = 0.04 s  ClockTime = 0 s

Time = 0.015

Courant Number mean: 0.00102594 max: 0.011772
smoothSolver:  Solving for Ux, Initial residual = 0.185152, Final residual = 1.70493e-06, No Iterations 4
smoothSolver:  Solving for Uy, Initial residual = 0.162812, Final residual = 1.48709e-06, No Iterations 4
GAMG:  Solving for p, Initial residual = 0.0510668, Final residual = 0.00503545, No Iterations 1
time step continuity errors : sum local = 1.78624e-06, global = -7.44463e-21, cumulative = -1.03837e-20
GAMG:  Solving for p, Initial residual = 0.00534976, Final residual = 8.00195e-07, No Iterations 8
time step continuity errors : sum local = 3.26289e-10, global = -5.80319e-21, cumulative = -1.61869e-20
smoothSolver:  Solving for epsilon, Initial residual = 0.0331742, Final residual = 4.13448e-06, No Iterations 3
smoothSolver:  Solving for k, Initial residual = 0.746807, Final residual = 9.77089e-06, No Iterations 4
ExecutionTime = 0.04 s  ClockTime = 0 s

Time = 0.02

Courant Number mean: 0.00149103 max: 0.0162955
smoothSolver:  Solving for Ux, Initial residual = 0.130206, Final residual = 1.20687e-06, No Iterations 4
smoothSolver:  Solving for Uy, Initial residual = 0.117051, Final residual = 1.10156e-06, No Iterations 4
GAMG:  Solving for p, Initial residual = 0.0327408, Final residual = 0.00159231, No Iterations 2
time step continuity errors : sum local = 6.00731e-07, global = -7.8272e-21, cumulative = -2.40141e-20
GAMG:  Solving for p, Initial residual = 0.00199814, Final residual = 9.02377e-07, No Iterations 7
time step continuity errors : sum local = 3.67852e-10, global = -2.32386e-21, cumulative = -2.63379e-20
smoothSolver:  Solving for epsilon, Initial residual = 0.0329319, Final residual = 4.10092e-06, No Iterations 3
smoothSolver:  Solving for k, Initial residual = 0.663655, Final residual = 8.64443e-06, No Iterations 4
ExecutionTime = 0.04 s  ClockTime = 0 s

Time = 0.025

Courant Number mean: 0.00194684 max: 0.0206771
smoothSolver:  Solving for Ux, Initial residual = 0.100699, Final residual = 9.42044e-07, No Iterations 4
smoothSolver:  Solving for Uy, Initial residual = 0.0916977, Final residual = 8.71419e-07, No Iterations 4
GAMG:  Solving for p, Initial residual = 0.0241815, Final residual = 0.000853352, No Iterations 2
time step continuity errors : sum local = 3.39399e-07, global = 4.78731e-21, cumulative = -2.15506e-20
GAMG:  Solving for p, Initial residual = 0.00108991, Final residual = 5.23777e-07, No Iterations 7
time step continuity errors : sum local = 2.50585e-10, global = 1.47342e-21, cumulative = -2.00772e-20
smoothSolver:  Solving for epsilon, Initial residual = 0.0327084, Final residual = 4.06467e-06, No Iterations 3
smoothSolver:  Solving for k, Initial residual = 0.597467, Final residual = 7.7509e-06, No Iterations 4
ExecutionTime = 0.04 s  ClockTime = 0 s

Time = 0.03

Courant Number mean: 0.00239041 max: 0.0248444
smoothSolver:  Solving for Ux, Initial residual = 0.0817102, Final residual = 7.68486e-07, No Iterations 4
smoothSolver:  Solving for Uy, Initial residual = 0.0757124, Final residual = 7.34884e-07, No Iterations 4
GAMG:  Solving for p, Initial residual = 0.0195829, Final residual = 0.000679275, No Iterations 2
time step continuity errors : sum local = 2.81808e-07, global = 9.69869e-21, cumulative = -1.03785e-20
GAMG:  Solving for p, Initial residual = 0.000895097, Final residual = 8.63042e-07, No Iterations 6
time step continuity errors : sum local = 4.36929e-10, global = 2.07157e-20, cumulative = 1.03372e-20
smoothSolver:  Solving for epsilon, Initial residual = 0.0324732, Final residual = 4.02622e-06, No Iterations 3
smoothSolver:  Solving for k, Initial residual = 0.543407, Final residual = 7.0235e-06, No Iterations 4
ExecutionTime = 0.04 s  ClockTime = 0 s

Time = 0.035

Courant Number mean: 0.00282222 max: 0.0288196
smoothSolver:  Solving for Ux, Initial residual = 0.0688063, Final residual = 6.50138e-07, No Iterations 4
smoothSolver:  Solving for Uy, Initial residual = 0.0645549, Final residual = 6.3964e-07, No Iterations 4
GAMG:  Solving for p, Initial residual = 0.017075, Final residual = 0.000579547, No Iterations 2
time step continuity errors : sum local = 2.49009e-07, global = 1.89218e-21, cumulative = 1.22293e-20
GAMG:  Solving for p, Initial residual = 0.000801755, Final residual = 7.11297e-07, No Iterations 6
time step continuity errors : sum local = 3.7508e-10, global = 1.44705e-20, cumulative = 2.66998e-20
smoothSolver:  Solving for epsilon, Initial residual = 0.0322092, Final residual = 3.98493e-06, No Iterations 3
smoothSolver:  Solving for k, Initial residual = 0.498108, Final residual = 6.41281e-06, No Iterations 4
ExecutionTime = 0.04 s  ClockTime = 0 s

Time = 0.04

Courant Number mean: 0.00324277 max: 0.0326099
smoothSolver:  Solving for Ux, Initial residual = 0.0593791, Final residual = 9.18887e-06, No Iterations 3
smoothSolver:  Solving for Uy, Initial residual = 0.056186, Final residual = 9.24954e-06, No Iterations 3
GAMG:  Solving for p, Initial residual = 0.0176352, Final residual = 0.000509363, No Iterations 2
time step continuity errors : sum local = 2.25135e-07, global = -2.94993e-20, cumulative = -2.79949e-21
GAMG:  Solving for p, Initial residual = 0.000752796, Final residual = 6.36501e-07, No Iterations 6
time step continuity errors : sum local = 3.46407e-10, global = 2.98871e-20, cumulative = 2.70876e-20
smoothSolver:  Solving for epsilon, Initial residual = 0.0319203, Final residual = 3.93996e-06, No Iterations 3
smoothSolver:  Solving for k, Initial residual = 0.459151, Final residual = 5.88846e-06, No Iterations 4
ExecutionTime = 0.04 s  ClockTime = 0 s

Time = 0.045

Courant Number mean: 0.00365338 max: 0.0362227
smoothSolver:  Solving for Ux, Initial residual = 0.0521901, Final residual = 8.12083e-06, No Iterations 3
smoothSolver:  Solving for Uy, Initial residual = 0.0496327, Final residual = 8.32976e-06, No Iterations 3
GAMG:  Solving for p, Initial residual = 0.0114456, Final residual = 0.00102792, No Iterations 1
time step continuity errors : sum local = 4.59668e-07, global = 8.99559e-21, cumulative = 3.60832e-20
GAMG:  Solving for p, Initial residual = 0.00112638, Final residual = 7.20376e-07, No Iterations 7
time step continuity errors : sum local = 3.72737e-10, global = 2.99077e-21, cumulative = 3.90739e-20
smoothSolver:  Solving for epsilon, Initial residual = 0.031619, Final residual = 3.89541e-06, No Iterations 3
smoothSolver:  Solving for k, Initial residual = 0.412726, Final residual = 5.27729e-06, No Iterations 4
ExecutionTime = 0.04 s  ClockTime = 1 s

Time = 0.05

Courant Number mean: 0.00405941 max: 0.0396654
smoothSolver:  Solving for Ux, Initial residual = 0.0464292, Final residual = 7.27352e-06, No Iterations 3
smoothSolver:  Solving for Uy, Initial residual = 0.0443153, Final residual = 7.6109e-06, No Iterations 3
GAMG:  Solving for p, Initial residual = 0.0133996, Final residual = 0.00023254, No Iterations 2
time step continuity errors : sum local = 1.05842e-07, global = -9.2851e-21, cumulative = 2.97888e-20
GAMG:  Solving for p, Initial residual = 0.00043562, Final residual = 9.41301e-07, No Iterations 5
time step continuity errors : sum local = 5.01325e-10, global = -7.21715e-21, cumulative = 2.25717e-20
smoothSolver:  Solving for epsilon, Initial residual = 0.0313285, Final residual = 3.85185e-06, No Iterations 3
smoothSolver:  Solving for k, Initial residual = 0.363446, Final residual = 4.63361e-06, No Iterations 4
ExecutionTime = 0.06 s  ClockTime = 1 s

Time = 0.055

Courant Number mean: 0.00445914 max: 0.0429451
smoothSolver:  Solving for Ux, Initial residual = 0.0417793, Final residual = 6.61023e-06, No Iterations 3
smoothSolver:  Solving for Uy, Initial residual = 0.0398335, Final residual = 7.03861e-06, No Iterations 3
GAMG:  Solving for p, Initial residual = 0.0144646, Final residual = 0.00141995, No Iterations 1
time step continuity errors : sum local = 6.3959e-07, global = 1.65229e-20, cumulative = 3.90946e-20
GAMG:  Solving for p, Initial residual = 0.00149063, Final residual = 4.58039e-07, No Iterations 7
time step continuity errors : sum local = 2.40424e-10, global = 2.55909e-21, cumulative = 4.16537e-20
smoothSolver:  Solving for epsilon, Initial residual = 0.0310216, Final residual = 3.80544e-06, No Iterations 3
smoothSolver:  Solving for k, Initial residual = 0.322349, Final residual = 4.0973e-06, No Iterations 4
ExecutionTime = 0.06 s  ClockTime = 1 s

Time = 0.06

Courant Number mean: 0.00485817 max: 0.0460587
smoothSolver:  Solving for Ux, Initial residual = 0.0378927, Final residual = 6.06787e-06, No Iterations 3
smoothSolver:  Solving for Uy, Initial residual = 0.0360008, Final residual = 6.60145e-06, No Iterations 3
GAMG:  Solving for p, Initial residual = 0.0144359, Final residual = 0.0013284, No Iterations 1
time step continuity errors : sum local = 5.97981e-07, global = 3.40902e-20, cumulative = 7.57439e-20
GAMG:  Solving for p, Initial residual = 0.00143798, Final residual = 5.66124e-07, No Iterations 7
time step continuity errors : sum local = 2.93935e-10, global = -2.18014e-20, cumulative = 5.39425e-20
smoothSolver:  Solving for epsilon, Initial residual = 0.0306925, Final residual = 3.75903e-06, No Iterations 3
smoothSolver:  Solving for k, Initial residual = 0.289066, Final residual = 3.66441e-06, No Iterations 4
ExecutionTime = 0.06 s  ClockTime = 1 s

Time = 0.065

Courant Number mean: 0.00525048 max: 0.048989
smoothSolver:  Solving for Ux, Initial residual = 0.0346418, Final residual = 5.59426e-06, No Iterations 3
smoothSolver:  Solving for Uy, Initial residual = 0.0329923, Final residual = 6.15213e-06, No Iterations 3
GAMG:  Solving for p, Initial residual = 0.0150876, Final residual = 0.00150804, No Iterations 1
time step continuity errors : sum local = 6.77407e-07, global = 1.46721e-20, cumulative = 6.86146e-20
GAMG:  Solving for p, Initial residual = 0.00162642, Final residual = 5.13101e-07, No Iterations 7
time step continuity errors : sum local = 2.65834e-10, global = -3.73265e-20, cumulative = 3.12881e-20
smoothSolver:  Solving for epsilon, Initial residual = 0.0303584, Final residual = 3.71189e-06, No Iterations 3
smoothSolver:  Solving for k, Initial residual = 0.261562, Final residual = 3.30607e-06, No Iterations 4
ExecutionTime = 0.06 s  ClockTime = 1 s

Time = 0.07

Courant Number mean: 0.00563633 max: 0.051766
smoothSolver:  Solving for Ux, Initial residual = 0.0318968, Final residual = 5.19054e-06, No Iterations 3
smoothSolver:  Solving for Uy, Initial residual = 0.0304695, Final residual = 5.75248e-06, No Iterations 3
GAMG:  Solving for p, Initial residual = 0.0132364, Final residual = 0.000297175, No Iterations 2
time step continuity errors : sum local = 1.34677e-07, global = 2.84652e-20, cumulative = 5.97533e-20
GAMG:  Solving for p, Initial residual = 0.000539177, Final residual = 8.73946e-07, No Iterations 6
time step continuity errors : sum local = 4.4847e-10, global = -6.94315e-21, cumulative = 5.28102e-20
smoothSolver:  Solving for epsilon, Initial residual = 0.0300126, Final residual = 3.66318e-06, No Iterations 3
smoothSolver:  Solving for k, Initial residual = 0.237896, Final residual = 3.00064e-06, No Iterations 4
ExecutionTime = 0.06 s  ClockTime = 1 s

Time = 0.075

Courant Number mean: 0.00601626 max: 0.054397
smoothSolver:  Solving for Ux, Initial residual = 0.0294868, Final residual = 4.83365e-06, No Iterations 3
smoothSolver:  Solving for Uy, Initial residual = 0.0283762, Final residual = 5.40965e-06, No Iterations 3
GAMG:  Solving for p, Initial residual = 0.0148525, Final residual = 0.000337657, No Iterations 2
time step continuity errors : sum local = 1.50251e-07, global = 4.84004e-20, cumulative = 1.01211e-19
GAMG:  Solving for p, Initial residual = 0.000602593, Final residual = 4.9684e-07, No Iterations 7
time step continuity errors : sum local = 2.52926e-10, global = 2.42416e-20, cumulative = 1.25452e-19
smoothSolver:  Solving for epsilon, Initial residual = 0.0296233, Final residual = 3.61062e-06, No Iterations 3
smoothSolver:  Solving for k, Initial residual = 0.21759, Final residual = 2.73969e-06, No Iterations 4
ExecutionTime = 0.06 s  ClockTime = 1 s

Time = 0.08

Courant Number mean: 0.00638907 max: 0.0568886
smoothSolver:  Solving for Ux, Initial residual = 0.0274249, Final residual = 4.52641e-06, No Iterations 3
smoothSolver:  Solving for Uy, Initial residual = 0.0265928, Final residual = 5.10885e-06, No Iterations 3
GAMG:  Solving for p, Initial residual = 0.0158337, Final residual = 0.000272064, No Iterations 2
time step continuity errors : sum local = 1.20691e-07, global = 3.18982e-21, cumulative = 1.28642e-19
GAMG:  Solving for p, Initial residual = 0.000573007, Final residual = 4.64933e-07, No Iterations 6
time step continuity errors : sum local = 2.40263e-10, global = -1.17253e-20, cumulative = 1.16917e-19
smoothSolver:  Solving for epsilon, Initial residual = 0.029194, Final residual = 3.55256e-06, No Iterations 3
smoothSolver:  Solving for k, Initial residual = 0.200149, Final residual = 2.51486e-06, No Iterations 4
ExecutionTime = 0.06 s  ClockTime = 1 s

Time = 0.085

Courant Number mean: 0.00675573 max: 0.059244
smoothSolver:  Solving for Ux, Initial residual = 0.0256674, Final residual = 4.24328e-06, No Iterations 3
smoothSolver:  Solving for Uy, Initial residual = 0.0248775, Final residual = 4.8208e-06, No Iterations 3
GAMG:  Solving for p, Initial residual = 0.0143334, Final residual = 0.000262983, No Iterations 2
time step continuity errors : sum local = 1.17437e-07, global = 7.52631e-20, cumulative = 1.9218e-19
GAMG:  Solving for p, Initial residual = 0.000537429, Final residual = 7.74206e-07, No Iterations 6
time step continuity errors : sum local = 3.93485e-10, global = 3.22342e-20, cumulative = 2.24414e-19
smoothSolver:  Solving for epsilon, Initial residual = 0.0287602, Final residual = 3.4943e-06, No Iterations 3
smoothSolver:  Solving for k, Initial residual = 0.18503, Final residual = 2.31944e-06, No Iterations 4
ExecutionTime = 0.07 s  ClockTime = 1 s

Time = 0.09

Courant Number mean: 0.00711587 max: 0.0614674
smoothSolver:  Solving for Ux, Initial residual = 0.0240848, Final residual = 4.00236e-06, No Iterations 3
smoothSolver:  Solving for Uy, Initial residual = 0.0234153, Final residual = 4.57074e-06, No Iterations 3
GAMG:  Solving for p, Initial residual = 0.0147099, Final residual = 0.000257925, No Iterations 2
time step continuity errors : sum local = 1.14467e-07, global = -1.30074e-20, cumulative = 2.11407e-19
GAMG:  Solving for p, Initial residual = 0.000569704, Final residual = 7.51607e-07, No Iterations 6
time step continuity errors : sum local = 3.81211e-10, global = 2.26854e-20, cumulative = 2.34092e-19
smoothSolver:  Solving for epsilon, Initial residual = 0.0283278, Final residual = 3.43705e-06, No Iterations 3
smoothSolver:  Solving for k, Initial residual = 0.171809, Final residual = 2.14911e-06, No Iterations 4
ExecutionTime = 0.07 s  ClockTime = 1 s

Time = 0.095

Courant Number mean: 0.00747094 max: 0.063563
smoothSolver:  Solving for Ux, Initial residual = 0.0227111, Final residual = 3.7903e-06, No Iterations 3
smoothSolver:  Solving for Uy, Initial residual = 0.0220956, Final residual = 4.34607e-06, No Iterations 3
GAMG:  Solving for p, Initial residual = 0.0146006, Final residual = 0.000270069, No Iterations 2
time step continuity errors : sum local = 1.19603e-07, global = 1.26097e-20, cumulative = 2.46702e-19
GAMG:  Solving for p, Initial residual = 0.000579504, Final residual = 6.98419e-07, No Iterations 6
time step continuity errors : sum local = 3.54651e-10, global = -6.6588e-21, cumulative = 2.40043e-19
smoothSolver:  Solving for epsilon, Initial residual = 0.0278968, Final residual = 3.37915e-06, No Iterations 3
smoothSolver:  Solving for k, Initial residual = 0.160138, Final residual = 1.99976e-06, No Iterations 4
ExecutionTime = 0.07 s  ClockTime = 1 s

Time = 0.1

Courant Number mean: 0.00782077 max: 0.0655364
smoothSolver:  Solving for Ux, Initial residual = 0.0214912, Final residual = 3.60135e-06, No Iterations 3
smoothSolver:  Solving for Uy, Initial residual = 0.0209201, Final residual = 4.14536e-06, No Iterations 3
GAMG:  Solving for p, Initial residual = 0.0143037, Final residual = 0.000275028, No Iterations 2
time step continuity errors : sum local = 1.21483e-07, global = -5.91534e-20, cumulative = 1.80889e-19
GAMG:  Solving for p, Initial residual = 0.000597378, Final residual = 7.58284e-07, No Iterations 6
time step continuity errors : sum local = 3.8317e-10, global = 7.59248e-20, cumulative = 2.56814e-19
smoothSolver:  Solving for epsilon, Initial residual = 0.0274711, Final residual = 3.32007e-06, No Iterations 3
smoothSolver:  Solving for k, Initial residual = 0.14977, Final residual = 1.86245e-06, No Iterations 4
ExecutionTime = 0.07 s  ClockTime = 1 s

Time = 0.105

Courant Number mean: 0.00816489 max: 0.0673957
smoothSolver:  Solving for Ux, Initial residual = 0.0203796, Final residual = 3.42926e-06, No Iterations 3
smoothSolver:  Solving for Uy, Initial residual = 0.0198558, Final residual = 3.96151e-06, No Iterations 3
GAMG:  Solving for p, Initial residual = 0.0143319, Final residual = 0.000281398, No Iterations 2
time step continuity errors : sum local = 1.24121e-07, global = 1.73811e-20, cumulative = 2.74195e-19
GAMG:  Solving for p, Initial residual = 0.000613702, Final residual = 7.75874e-07, No Iterations 6
time step continuity errors : sum local = 3.91084e-10, global = 6.58126e-20, cumulative = 3.40008e-19
smoothSolver:  Solving for epsilon, Initial residual = 0.027045, Final residual = 3.26389e-06, No Iterations 3
smoothSolver:  Solving for k, Initial residual = 0.140505, Final residual = 1.74536e-06, No Iterations 4
ExecutionTime = 0.07 s  ClockTime = 1 s

Time = 0.11

Courant Number mean: 0.00850353 max: 0.0691485
smoothSolver:  Solving for Ux, Initial residual = 0.0194057, Final residual = 3.2528e-06, No Iterations 3
smoothSolver:  Solving for Uy, Initial residual = 0.0188913, Final residual = 3.73418e-06, No Iterations 3
GAMG:  Solving for p, Initial residual = 0.0168601, Final residual = 0.000359001, No Iterations 2
time step continuity errors : sum local = 1.57551e-07, global = -6.07461e-21, cumulative = 3.33933e-19
GAMG:  Solving for p, Initial residual = 0.000739326, Final residual = 9.78765e-07, No Iterations 6
time step continuity errors : sum local = 4.91253e-10, global = -8.46257e-20, cumulative = 2.49308e-19
smoothSolver:  Solving for epsilon, Initial residual = 0.0266189, Final residual = 3.20722e-06, No Iterations 3
smoothSolver:  Solving for k, Initial residual = 0.13217, Final residual = 1.639e-06, No Iterations 4
ExecutionTime = 0.07 s  ClockTime = 1 s

Time = 0.115

Courant Number mean: 0.00883673 max: 0.0707827
smoothSolver:  Solving for Ux, Initial residual = 0.0185365, Final residual = 3.08591e-06, No Iterations 3
smoothSolver:  Solving for Uy, Initial residual = 0.0180235, Final residual = 3.51512e-06, No Iterations 3
GAMG:  Solving for p, Initial residual = 0.017778, Final residual = 0.000385008, No Iterations 2
time step continuity errors : sum local = 1.68619e-07, global = -2.52807e-21, cumulative = 2.46779e-19
GAMG:  Solving for p, Initial residual = 0.000789275, Final residual = 9.97467e-07, No Iterations 6
time step continuity errors : sum local = 5.01176e-10, global = 2.76744e-20, cumulative = 2.74454e-19
smoothSolver:  Solving for epsilon, Initial residual = 0.0262111, Final residual = 3.15233e-06, No Iterations 3
smoothSolver:  Solving for k, Initial residual = 0.12464, Final residual = 1.54176e-06, No Iterations 4
ExecutionTime = 0.07 s  ClockTime = 1 s

Time = 0.12

Courant Number mean: 0.00916464 max: 0.0722986
smoothSolver:  Solving for Ux, Initial residual = 0.0177081, Final residual = 2.95635e-06, No Iterations 3
smoothSolver:  Solving for Uy, Initial residual = 0.0172431, Final residual = 3.37646e-06, No Iterations 3
GAMG:  Solving for p, Initial residual = 0.0144052, Final residual = 0.000306694, No Iterations 2
time step continuity errors : sum local = 1.33781e-07, global = -2.18634e-20, cumulative = 2.5259e-19
GAMG:  Solving for p, Initial residual = 0.000685694, Final residual = 6.67094e-07, No Iterations 6
time step continuity errors : sum local = 3.38505e-10, global = -4.47556e-20, cumulative = 2.07835e-19
smoothSolver:  Solving for epsilon, Initial residual = 0.0258069, Final residual = 3.09894e-06, No Iterations 3
smoothSolver:  Solving for k, Initial residual = 0.117807, Final residual = 1.45139e-06, No Iterations 4
ExecutionTime = 0.08 s  ClockTime = 1 s

Time = 0.125

Courant Number mean: 0.00948874 max: 0.0737563
smoothSolver:  Solving for Ux, Initial residual = 0.0169271, Final residual = 2.83437e-06, No Iterations 3
smoothSolver:  Solving for Uy, Initial residual = 0.0166704, Final residual = 3.26018e-06, No Iterations 3
GAMG:  Solving for p, Initial residual = 0.016095, Final residual = 0.000454386, No Iterations 2
time step continuity errors : sum local = 1.97388e-07, global = 2.55676e-20, cumulative = 2.33402e-19
GAMG:  Solving for p, Initial residual = 0.000794157, Final residual = 4.59049e-07, No Iterations 7
time step continuity errors : sum local = 2.31073e-10, global = -9.20238e-21, cumulative = 2.242e-19
smoothSolver:  Solving for epsilon, Initial residual = 0.0254022, Final residual = 3.04424e-06, No Iterations 3
smoothSolver:  Solving for k, Initial residual = 0.111583, Final residual = 1.37227e-06, No Iterations 4
ExecutionTime = 0.08 s  ClockTime = 1 s

Time = 0.13

Courant Number mean: 0.00980972 max: 0.0753839
smoothSolver:  Solving for Ux, Initial residual = 0.016188, Final residual = 2.71819e-06, No Iterations 3
smoothSolver:  Solving for Uy, Initial residual = 0.0162831, Final residual = 3.18622e-06, No Iterations 3
GAMG:  Solving for p, Initial residual = 0.0139465, Final residual = 0.00034213, No Iterations 2
time step continuity errors : sum local = 1.48662e-07, global = 3.38162e-20, cumulative = 2.58016e-19
GAMG:  Solving for p, Initial residual = 0.000672159, Final residual = 8.84119e-07, No Iterations 6
time step continuity errors : sum local = 4.41164e-10, global = -3.00267e-20, cumulative = 2.2799e-19
smoothSolver:  Solving for epsilon, Initial residual = 0.0250029, Final residual = 2.99018e-06, No Iterations 3
smoothSolver:  Solving for k, Initial residual = 0.105889, Final residual = 1.30057e-06, No Iterations 4
ExecutionTime = 0.08 s  ClockTime = 1 s

Time = 0.135

Courant Number mean: 0.0101312 max: 0.0773737
smoothSolver:  Solving for Ux, Initial residual = 0.0155211, Final residual = 2.61882e-06, No Iterations 3
smoothSolver:  Solving for Uy, Initial residual = 0.0158295, Final residual = 3.1095e-06, No Iterations 3
GAMG:  Solving for p, Initial residual = 0.015798, Final residual = 0.000350282, No Iterations 2
time step continuity errors : sum local = 1.52803e-07, global = -8.16582e-20, cumulative = 1.46331e-19
GAMG:  Solving for p, Initial residual = 0.000680908, Final residual = 8.12947e-07, No Iterations 6
time step continuity errors : sum local = 4.12384e-10, global = 3.90326e-21, cumulative = 1.50235e-19
smoothSolver:  Solving for epsilon, Initial residual = 0.0246092, Final residual = 2.93749e-06, No Iterations 3
smoothSolver:  Solving for k, Initial residual = 0.100665, Final residual = 1.23552e-06, No Iterations 4
ExecutionTime = 0.08 s  ClockTime = 1 s

Time = 0.14

Courant Number mean: 0.0104509 max: 0.0792922
smoothSolver:  Solving for Ux, Initial residual = 0.0149069, Final residual = 2.52753e-06, No Iterations 3
smoothSolver:  Solving for Uy, Initial residual = 0.0153904, Final residual = 3.03521e-06, No Iterations 3
GAMG:  Solving for p, Initial residual = 0.0162824, Final residual = 0.000370888, No Iterations 2
time step continuity errors : sum local = 1.61689e-07, global = -4.44351e-20, cumulative = 1.05799e-19
GAMG:  Solving for p, Initial residual = 0.000749209, Final residual = 4.82055e-07, No Iterations 6
time step continuity errors : sum local = 2.46016e-10, global = -8.3385e-20, cumulative = 2.24145e-20
smoothSolver:  Solving for epsilon, Initial residual = 0.0242242, Final residual = 2.88596e-06, No Iterations 3
smoothSolver:  Solving for k, Initial residual = 0.0958581, Final residual = 1.17438e-06, No Iterations 4
ExecutionTime = 0.08 s  ClockTime = 1 s

Time = 0.145

Courant Number mean: 0.0107666 max: 0.0811096
smoothSolver:  Solving for Ux, Initial residual = 0.0143064, Final residual = 2.43255e-06, No Iterations 3
smoothSolver:  Solving for Uy, Initial residual = 0.0149858, Final residual = 2.95909e-06, No Iterations 3
GAMG:  Solving for p, Initial residual = 0.0159824, Final residual = 0.000413948, No Iterations 2
time step continuity errors : sum local = 1.80202e-07, global = -5.08819e-20, cumulative = -2.84675e-20
GAMG:  Solving for p, Initial residual = 0.000751296, Final residual = 6.83119e-07, No Iterations 7
time step continuity errors : sum local = 3.37023e-10, global = -6.75626e-20, cumulative = -9.603e-20
smoothSolver:  Solving for epsilon, Initial residual = 0.0238465, Final residual = 2.83387e-06, No Iterations 3
smoothSolver:  Solving for k, Initial residual = 0.0914197, Final residual = 1.11838e-06, No Iterations 4
ExecutionTime = 0.08 s  ClockTime = 1 s

Time = 0.15

Courant Number mean: 0.0110778 max: 0.0829065
smoothSolver:  Solving for Ux, Initial residual = 0.0137625, Final residual = 2.34951e-06, No Iterations 3
smoothSolver:  Solving for Uy, Initial residual = 0.0146268, Final residual = 2.8931e-06, No Iterations 3
GAMG:  Solving for p, Initial residual = 0.013573, Final residual = 0.000272834, No Iterations 2
time step continuity errors : sum local = 1.19478e-07, global = -6.25866e-20, cumulative = -1.58617e-19
GAMG:  Solving for p, Initial residual = 0.000605268, Final residual = 7.40904e-07, No Iterations 6
time step continuity errors : sum local = 3.69675e-10, global = 1.24615e-19, cumulative = -3.40018e-20
smoothSolver:  Solving for epsilon, Initial residual = 0.0234692, Final residual = 2.78119e-06, No Iterations 3
smoothSolver:  Solving for k, Initial residual = 0.0873111, Final residual = 1.06969e-06, No Iterations 4
ExecutionTime = 0.09 s  ClockTime = 1 s

Time = 0.155

Courant Number mean: 0.0113854 max: 0.0846716
smoothSolver:  Solving for Ux, Initial residual = 0.0132604, Final residual = 2.27435e-06, No Iterations 3
smoothSolver:  Solving for Uy, Initial residual = 0.0142037, Final residual = 2.82511e-06, No Iterations 3
GAMG:  Solving for p, Initial residual = 0.01306, Final residual = 0.000273124, No Iterations 2
time step continuity errors : sum local = 1.2038e-07, global = 1.49616e-20, cumulative = -1.90402e-20
GAMG:  Solving for p, Initial residual = 0.000584701, Final residual = 7.82723e-07, No Iterations 6
time step continuity errors : sum local = 3.92067e-10, global = -1.30488e-20, cumulative = -3.2089e-20
smoothSolver:  Solving for epsilon, Initial residual = 0.0231204, Final residual = 2.7304e-06, No Iterations 3
smoothSolver:  Solving for k, Initial residual = 0.0835055, Final residual = 1.02404e-06, No Iterations 4
ExecutionTime = 0.09 s  ClockTime = 1 s

Time = 0.16

Courant Number mean: 0.0116891 max: 0.0864059
smoothSolver:  Solving for Ux, Initial residual = 0.0127832, Final residual = 2.20337e-06, No Iterations 3
smoothSolver:  Solving for Uy, Initial residual = 0.0138075, Final residual = 2.76252e-06, No Iterations 3
GAMG:  Solving for p, Initial residual = 0.0131905, Final residual = 0.00026056, No Iterations 2
time step continuity errors : sum local = 1.15608e-07, global = 6.2752e-20, cumulative = 3.0663e-20
GAMG:  Solving for p, Initial residual = 0.000574886, Final residual = 7.32501e-07, No Iterations 6
time step continuity errors : sum local = 3.6908e-10, global = 6.47579e-20, cumulative = 9.54209e-20
smoothSolver:  Solving for epsilon, Initial residual = 0.0228074, Final residual = 2.67995e-06, No Iterations 3
smoothSolver:  Solving for k, Initial residual = 0.0799917, Final residual = 9.78288e-07, No Iterations 4
ExecutionTime = 0.09 s  ClockTime = 1 s

Time = 0.165

Courant Number mean: 0.0119891 max: 0.0881105
smoothSolver:  Solving for Ux, Initial residual = 0.0123371, Final residual = 2.13907e-06, No Iterations 3
smoothSolver:  Solving for Uy, Initial residual = 0.0134407, Final residual = 2.70297e-06, No Iterations 3
GAMG:  Solving for p, Initial residual = 0.0132913, Final residual = 0.000255067, No Iterations 2
time step continuity errors : sum local = 1.13981e-07, global = 2.1455e-20, cumulative = 1.16876e-19
GAMG:  Solving for p, Initial residual = 0.000568074, Final residual = 7.57388e-07, No Iterations 6
time step continuity errors : sum local = 3.8338e-10, global = -6.14595e-20, cumulative = 5.54164e-20
smoothSolver:  Solving for epsilon, Initial residual = 0.0225007, Final residual = 2.63118e-06, No Iterations 3
smoothSolver:  Solving for k, Initial residual = 0.0767217, Final residual = 9.37385e-07, No Iterations 4
ExecutionTime = 0.09 s  ClockTime = 1 s

Time = 0.17

Courant Number mean: 0.0122854 max: 0.0897891
smoothSolver:  Solving for Ux, Initial residual = 0.0119276, Final residual = 2.07479e-06, No Iterations 3
smoothSolver:  Solving for Uy, Initial residual = 0.0130831, Final residual = 2.63699e-06, No Iterations 3
GAMG:  Solving for p, Initial residual = 0.0140334, Final residual = 0.00025794, No Iterations 2
time step continuity errors : sum local = 1.16039e-07, global = -1.2356e-20, cumulative = 4.30604e-20
GAMG:  Solving for p, Initial residual = 0.000566713, Final residual = 8.12805e-07, No Iterations 6
time step continuity errors : sum local = 4.1307e-10, global = -2.5715e-20, cumulative = 1.73454e-20
smoothSolver:  Solving for epsilon, Initial residual = 0.022196, Final residual = 2.58173e-06, No Iterations 3
smoothSolver:  Solving for k, Initial residual = 0.0736768, Final residual = 8.99474e-07, No Iterations 4
ExecutionTime = 0.1 s  ClockTime = 1 s

Time = 0.175

Courant Number mean: 0.0125783 max: 0.091448
smoothSolver:  Solving for Ux, Initial residual = 0.0115452, Final residual = 2.01459e-06, No Iterations 3
smoothSolver:  Solving for Uy, Initial residual = 0.0127247, Final residual = 2.56928e-06, No Iterations 3
GAMG:  Solving for p, Initial residual = 0.0143538, Final residual = 0.000257501, No Iterations 2
time step continuity errors : sum local = 1.16833e-07, global = -2.87238e-20, cumulative = -1.13784e-20
GAMG:  Solving for p, Initial residual = 0.000567702, Final residual = 8.15656e-07, No Iterations 6
time step continuity errors : sum local = 4.18006e-10, global = -5.41286e-20, cumulative = -6.5507e-20
smoothSolver:  Solving for epsilon, Initial residual = 0.0218936, Final residual = 2.53312e-06, No Iterations 3
smoothSolver:  Solving for k, Initial residual = 0.070856, Final residual = 8.63153e-07, No Iterations 4
ExecutionTime = 0.1 s  ClockTime = 1 s

Time = 0.18

Courant Number mean: 0.0128677 max: 0.0930922
smoothSolver:  Solving for Ux, Initial residual = 0.0111859, Final residual = 1.95747e-06, No Iterations 3
smoothSolver:  Solving for Uy, Initial residual = 0.0123735, Final residual = 2.50234e-06, No Iterations 3
GAMG:  Solving for p, Initial residual = 0.0146134, Final residual = 0.000304567, No Iterations 2
time step continuity errors : sum local = 1.38762e-07, global = 3.47416e-20, cumulative = -3.07655e-20
GAMG:  Solving for p, Initial residual = 0.000579751, Final residual = 5.22148e-07, No Iterations 7
time step continuity errors : sum local = 2.68776e-10, global = 2.21995e-20, cumulative = -8.566e-21
smoothSolver:  Solving for epsilon, Initial residual = 0.0216036, Final residual = 2.48754e-06, No Iterations 3
smoothSolver:  Solving for k, Initial residual = 0.0682764, Final residual = 8.29698e-07, No Iterations 4
ExecutionTime = 0.1 s  ClockTime = 1 s

Time = 0.185

Courant Number mean: 0.0131555 max: 0.094727
smoothSolver:  Solving for Ux, Initial residual = 0.0108528, Final residual = 1.9021e-06, No Iterations 3
smoothSolver:  Solving for Uy, Initial residual = 0.01209, Final residual = 2.44297e-06, No Iterations 3
GAMG:  Solving for p, Initial residual = 0.0133714, Final residual = 0.00025643, No Iterations 2
time step continuity errors : sum local = 1.18446e-07, global = -6.66811e-20, cumulative = -7.52471e-20
GAMG:  Solving for p, Initial residual = 0.000530076, Final residual = 9.61932e-07, No Iterations 6
time step continuity errors : sum local = 5.0135e-10, global = -7.23783e-22, cumulative = -7.59709e-20
smoothSolver:  Solving for epsilon, Initial residual = 0.0213038, Final residual = 2.43997e-06, No Iterations 3
smoothSolver:  Solving for k, Initial residual = 0.0658642, Final residual = 8.00195e-07, No Iterations 4
ExecutionTime = 0.1 s  ClockTime = 1 s

Time = 0.19

Courant Number mean: 0.0134411 max: 0.0963525
smoothSolver:  Solving for Ux, Initial residual = 0.0105421, Final residual = 1.85064e-06, No Iterations 3
smoothSolver:  Solving for Uy, Initial residual = 0.0117912, Final residual = 2.38239e-06, No Iterations 3
GAMG:  Solving for p, Initial residual = 0.0119955, Final residual = 0.00031874, No Iterations 2
time step continuity errors : sum local = 1.48263e-07, global = -3.14535e-20, cumulative = -1.07424e-19
GAMG:  Solving for p, Initial residual = 0.000670441, Final residual = 5.9683e-07, No Iterations 7
time step continuity errors : sum local = 3.14682e-10, global = 3.72231e-21, cumulative = -1.03702e-19
smoothSolver:  Solving for epsilon, Initial residual = 0.0210038, Final residual = 2.39015e-06, No Iterations 3
smoothSolver:  Solving for k, Initial residual = 0.0635822, Final residual = 7.70846e-07, No Iterations 4
ExecutionTime = 0.1 s  ClockTime = 1 s

Time = 0.195

Courant Number mean: 0.0137233 max: 0.0978896
smoothSolver:  Solving for Ux, Initial residual = 0.0102416, Final residual = 1.80401e-06, No Iterations 3
smoothSolver:  Solving for Uy, Initial residual = 0.0115729, Final residual = 2.33225e-06, No Iterations 3
GAMG:  Solving for p, Initial residual = 0.0108708, Final residual = 0.000278992, No Iterations 2
time step continuity errors : sum local = 1.31495e-07, global = -6.31759e-20, cumulative = -1.66878e-19
GAMG:  Solving for p, Initial residual = 0.000566968, Final residual = 9.61129e-07, No Iterations 6
time step continuity errors : sum local = 5.11805e-10, global = -1.90045e-20, cumulative = -1.85883e-19
smoothSolver:  Solving for epsilon, Initial residual = 0.0207052, Final residual = 2.3441e-06, No Iterations 3
smoothSolver:  Solving for k, Initial residual = 0.0614252, Final residual = 7.41578e-07, No Iterations 4
ExecutionTime = 0.1 s  ClockTime = 1 s

Time = 0.2

Courant Number mean: 0.0140022 max: 0.0993878
smoothSolver:  Solving for Ux, Initial residual = 0.00995715, Final residual = 1.75947e-06, No Iterations 3
smoothSolver:  Solving for Uy, Initial residual = 0.0113233, Final residual = 2.2803e-06, No Iterations 3
GAMG:  Solving for p, Initial residual = 0.011203, Final residual = 0.000263113, No Iterations 2
time step continuity errors : sum local = 1.25279e-07, global = -5.83783e-20, cumulative = -2.44261e-19
GAMG:  Solving for p, Initial residual = 0.000527429, Final residual = 6.6081e-07, No Iterations 6
time step continuity errors : sum local = 3.55396e-10, global = -8.10637e-20, cumulative = -3.25324e-19
smoothSolver:  Solving for epsilon, Initial residual = 0.0204087, Final residual = 2.3003e-06, No Iterations 3
smoothSolver:  Solving for k, Initial residual = 0.0593872, Final residual = 7.15362e-07, No Iterations 4
ExecutionTime = 0.11 s  ClockTime = 1 s

Time = 0.205

Courant Number mean: 0.0142781 max: 0.100866
smoothSolver:  Solving for Ux, Initial residual = 0.00971184, Final residual = 1.72408e-06, No Iterations 3
smoothSolver:  Solving for Uy, Initial residual = 0.011033, Final residual = 2.22299e-06, No Iterations 3
GAMG:  Solving for p, Initial residual = 0.0111529, Final residual = 0.000283537, No Iterations 2
time step continuity errors : sum local = 1.3508e-07, global = 1.35037e-20, cumulative = -3.11821e-19
GAMG:  Solving for p, Initial residual = 0.000550081, Final residual = 6.58968e-07, No Iterations 6
time step continuity errors : sum local = 3.551e-10, global = 4.88554e-20, cumulative = -2.62965e-19
smoothSolver:  Solving for epsilon, Initial residual = 0.0201124, Final residual = 2.25694e-06, No Iterations 3
smoothSolver:  Solving for k, Initial residual = 0.0574591, Final residual = 6.9038e-07, No Iterations 4
ExecutionTime = 0.11 s  ClockTime = 1 s

Time = 0.21

Courant Number mean: 0.0145544 max: 0.102312
smoothSolver:  Solving for Ux, Initial residual = 0.00947933, Final residual = 1.69563e-06, No Iterations 3
smoothSolver:  Solving for Uy, Initial residual = 0.0107604, Final residual = 2.17117e-06, No Iterations 3
GAMG:  Solving for p, Initial residual = 0.0110108, Final residual = 0.000278583, No Iterations 2
time step continuity errors : sum local = 1.33307e-07, global = 6.75962e-20, cumulative = -1.95369e-19
GAMG:  Solving for p, Initial residual = 0.000548791, Final residual = 7.33086e-07, No Iterations 6
time step continuity errors : sum local = 3.9703e-10, global = 4.31685e-20, cumulative = -1.52201e-19
smoothSolver:  Solving for epsilon, Initial residual = 0.0198153, Final residual = 2.21398e-06, No Iterations 3
smoothSolver:  Solving for k, Initial residual = 0.0556318, Final residual = 6.66683e-07, No Iterations 4
ExecutionTime = 0.11 s  ClockTime = 1 s

Time = 0.215

Courant Number mean: 0.0148284 max: 0.103711
smoothSolver:  Solving for Ux, Initial residual = 0.0092465, Final residual = 1.6568e-06, No Iterations 3
smoothSolver:  Solving for Uy, Initial residual = 0.0105286, Final residual = 2.12395e-06, No Iterations 3
GAMG:  Solving for p, Initial residual = 0.0115559, Final residual = 0.000276646, No Iterations 2
time step continuity errors : sum local = 1.3329e-07, global = 3.71611e-20, cumulative = -1.1504e-19
GAMG:  Solving for p, Initial residual = 0.000548699, Final residual = 7.10031e-07, No Iterations 6
time step continuity errors : sum local = 3.87792e-10, global = -5.64034e-20, cumulative = -1.71443e-19
smoothSolver:  Solving for epsilon, Initial residual = 0.0195197, Final residual = 2.17e-06, No Iterations 3
smoothSolver:  Solving for k, Initial residual = 0.053898, Final residual = 6.44642e-07, No Iterations 4
ExecutionTime = 0.11 s  ClockTime = 1 s

Time = 0.22

Courant Number mean: 0.0150991 max: 0.10507
smoothSolver:  Solving for Ux, Initial residual = 0.00902146, Final residual = 1.61479e-06, No Iterations 3
smoothSolver:  Solving for Uy, Initial residual = 0.0102991, Final residual = 2.0782e-06, No Iterations 3
GAMG:  Solving for p, Initial residual = 0.0112215, Final residual = 0.000265883, No Iterations 2
time step continuity errors : sum local = 1.29198e-07, global = 1.61817e-20, cumulative = -1.55261e-19
GAMG:  Solving for p, Initial residual = 0.000526966, Final residual = 8.89414e-07, No Iterations 6
time step continuity errors : sum local = 4.86316e-10, global = -4.05319e-20, cumulative = -1.95793e-19
smoothSolver:  Solving for epsilon, Initial residual = 0.0192238, Final residual = 2.12739e-06, No Iterations 3
smoothSolver:  Solving for k, Initial residual = 0.0522439, Final residual = 9.91339e-06, No Iterations 3
ExecutionTime = 0.11 s  ClockTime = 1 s

Time = 0.225

Courant Number mean: 0.0153741 max: 0.106394
smoothSolver:  Solving for Ux, Initial residual = 0.00880104, Final residual = 1.58183e-06, No Iterations 3
smoothSolver:  Solving for Uy, Initial residual = 0.0101095, Final residual = 2.04299e-06, No Iterations 3
GAMG:  Solving for p, Initial residual = 0.0111286, Final residual = 0.000290532, No Iterations 2
time step continuity errors : sum local = 1.42527e-07, global = 2.87652e-20, cumulative = -1.67028e-19
GAMG:  Solving for p, Initial residual = 0.000587466, Final residual = 7.48243e-07, No Iterations 6
time step continuity errors : sum local = 4.14285e-10, global = -4.97342e-21, cumulative = -1.72001e-19
smoothSolver:  Solving for epsilon, Initial residual = 0.0189416, Final residual = 2.08675e-06, No Iterations 3
smoothSolver:  Solving for k, Initial residual = 0.0506666, Final residual = 9.60748e-06, No Iterations 3
ExecutionTime = 0.12 s  ClockTime = 1 s

Time = 0.23

Courant Number mean: 0.0156472 max: 0.10768
smoothSolver:  Solving for Ux, Initial residual = 0.00858693, Final residual = 1.55269e-06, No Iterations 3
smoothSolver:  Solving for Uy, Initial residual = 0.00991902, Final residual = 2.01407e-06, No Iterations 3
GAMG:  Solving for p, Initial residual = 0.0146125, Final residual = 0.000377285, No Iterations 2
time step continuity errors : sum local = 1.82479e-07, global = 7.55733e-20, cumulative = -9.64281e-20
GAMG:  Solving for p, Initial residual = 0.000788482, Final residual = 6.03258e-07, No Iterations 7
time step continuity errors : sum local = 3.29543e-10, global = -6.50578e-20, cumulative = -1.61486e-19
smoothSolver:  Solving for epsilon, Initial residual = 0.0186449, Final residual = 2.04627e-06, No Iterations 3
smoothSolver:  Solving for k, Initial residual = 0.0491447, Final residual = 9.33967e-06, No Iterations 3
ExecutionTime = 0.12 s  ClockTime = 1 s

Time = 0.235

Courant Number mean: 0.0159184 max: 0.108822
smoothSolver:  Solving for Ux, Initial residual = 0.00838007, Final residual = 1.5249e-06, No Iterations 3
smoothSolver:  Solving for Uy, Initial residual = 0.00982336, Final residual = 1.99786e-06, No Iterations 3
GAMG:  Solving for p, Initial residual = 0.00981111, Final residual = 0.000261637, No Iterations 2
time step continuity errors : sum local = 1.2763e-07, global = -2.12379e-20, cumulative = -1.82724e-19
GAMG:  Solving for p, Initial residual = 0.00053685, Final residual = 6.20298e-07, No Iterations 6
time step continuity errors : sum local = 3.41236e-10, global = -3.21049e-20, cumulative = -2.14829e-19
smoothSolver:  Solving for epsilon, Initial residual = 0.0183638, Final residual = 2.00693e-06, No Iterations 3
smoothSolver:  Solving for k, Initial residual = 0.0476864, Final residual = 8.89449e-06, No Iterations 3
ExecutionTime = 0.13 s  ClockTime = 1 s

Time = 0.24

Courant Number mean: 0.0161863 max: 0.109958
smoothSolver:  Solving for Ux, Initial residual = 0.00818665, Final residual = 1.49078e-06, No Iterations 3
smoothSolver:  Solving for Uy, Initial residual = 0.00962397, Final residual = 1.96627e-06, No Iterations 3
GAMG:  Solving for p, Initial residual = 0.00949223, Final residual = 0.000258372, No Iterations 2
time step continuity errors : sum local = 1.26493e-07, global = -2.99026e-20, cumulative = -2.44731e-19
GAMG:  Solving for p, Initial residual = 0.000534118, Final residual = 6.79536e-07, No Iterations 6
time step continuity errors : sum local = 3.74828e-10, global = -9.91583e-21, cumulative = -2.54647e-19
smoothSolver:  Solving for epsilon, Initial residual = 0.0180716, Final residual = 1.96787e-06, No Iterations 3
smoothSolver:  Solving for k, Initial residual = 0.0462875, Final residual = 8.60527e-06, No Iterations 3
ExecutionTime = 0.13 s  ClockTime = 1 s

Time = 0.245

Courant Number mean: 0.0164513 max: 0.111082
smoothSolver:  Solving for Ux, Initial residual = 0.00799836, Final residual = 1.46743e-06, No Iterations 3
smoothSolver:  Solving for Uy, Initial residual = 0.00943822, Final residual = 1.93722e-06, No Iterations 3
GAMG:  Solving for p, Initial residual = 0.0100703, Final residual = 0.000262137, No Iterations 2
time step continuity errors : sum local = 1.28732e-07, global = -7.03414e-20, cumulative = -3.24988e-19
GAMG:  Solving for p, Initial residual = 0.000537778, Final residual = 6.31334e-07, No Iterations 6
time step continuity errors : sum local = 3.49628e-10, global = -1.19993e-19, cumulative = -4.44981e-19
smoothSolver:  Solving for epsilon, Initial residual = 0.0177799, Final residual = 1.92752e-06, No Iterations 3
smoothSolver:  Solving for k, Initial residual = 0.044949, Final residual = 8.33657e-06, No Iterations 3
ExecutionTime = 0.13 s  ClockTime = 1 s

Time = 0.25

Courant Number mean: 0.016713 max: 0.112193
smoothSolver:  Solving for Ux, Initial residual = 0.00781926, Final residual = 1.44784e-06, No Iterations 3
smoothSolver:  Solving for Uy, Initial residual = 0.00925476, Final residual = 1.90778e-06, No Iterations 3
GAMG:  Solving for p, Initial residual = 0.0149618, Final residual = 0.000309508, No Iterations 2
time step continuity errors : sum local = 1.50687e-07, global = 2.10621e-20, cumulative = -4.23919e-19
GAMG:  Solving for p, Initial residual = 0.000632756, Final residual = 5.77575e-07, No Iterations 6
time step continuity errors : sum local = 3.17503e-10, global = 9.58496e-21, cumulative = -4.14334e-19
smoothSolver:  Solving for epsilon, Initial residual = 0.0174857, Final residual = 1.8884e-06, No Iterations 3
smoothSolver:  Solving for k, Initial residual = 0.0436687, Final residual = 8.08035e-06, No Iterations 3
ExecutionTime = 0.13 s  ClockTime = 1 s

Time = 0.255

Courant Number mean: 0.016971 max: 0.1133
smoothSolver:  Solving for Ux, Initial residual = 0.00766588, Final residual = 1.439e-06, No Iterations 3
smoothSolver:  Solving for Uy, Initial residual = 0.00904832, Final residual = 1.87341e-06, No Iterations 3
GAMG:  Solving for p, Initial residual = 0.0111855, Final residual = 0.000258955, No Iterations 2
time step continuity errors : sum local = 1.26946e-07, global = 9.77624e-21, cumulative = -4.04558e-19
GAMG:  Solving for p, Initial residual = 0.000628108, Final residual = 9.29613e-07, No Iterations 6
time step continuity errors : sum local = 5.12686e-10, global = -1.16622e-19, cumulative = -5.2118e-19
smoothSolver:  Solving for epsilon, Initial residual = 0.0171781, Final residual = 1.84949e-06, No Iterations 3
smoothSolver:  Solving for k, Initial residual = 0.0424454, Final residual = 7.86591e-06, No Iterations 3
ExecutionTime = 0.14 s  ClockTime = 1 s

Time = 0.26

Courant Number mean: 0.0172273 max: 0.114363
smoothSolver:  Solving for Ux, Initial residual = 0.00748462, Final residual = 1.4111e-06, No Iterations 3
smoothSolver:  Solving for Uy, Initial residual = 0.0089371, Final residual = 1.85633e-06, No Iterations 3
GAMG:  Solving for p, Initial residual = 0.010954, Final residual = 0.000257749, No Iterations 2
time step continuity errors : sum local = 1.27012e-07, global = 3.15156e-20, cumulative = -4.89665e-19
GAMG:  Solving for p, Initial residual = 0.000528602, Final residual = 6.75555e-07, No Iterations 6
time step continuity errors : sum local = 3.7411e-10, global = 1.79705e-20, cumulative = -4.71694e-19
smoothSolver:  Solving for epsilon, Initial residual = 0.0168579, Final residual = 1.80855e-06, No Iterations 3
smoothSolver:  Solving for k, Initial residual = 0.0412725, Final residual = 7.62559e-06, No Iterations 3
ExecutionTime = 0.14 s  ClockTime = 1 s

Time = 0.265

Courant Number mean: 0.0174808 max: 0.115417
smoothSolver:  Solving for Ux, Initial residual = 0.00733528, Final residual = 1.39243e-06, No Iterations 3
smoothSolver:  Solving for Uy, Initial residual = 0.0087789, Final residual = 1.82962e-06, No Iterations 3
GAMG:  Solving for p, Initial residual = 0.00917264, Final residual = 0.000247233, No Iterations 2
time step continuity errors : sum local = 1.22339e-07, global = -4.43989e-20, cumulative = -5.16093e-19
GAMG:  Solving for p, Initial residual = 0.000537289, Final residual = 7.93833e-07, No Iterations 6
time step continuity errors : sum local = 4.4123e-10, global = -8.71952e-20, cumulative = -6.03288e-19
smoothSolver:  Solving for epsilon, Initial residual = 0.0165634, Final residual = 1.77244e-06, No Iterations 3
smoothSolver:  Solving for k, Initial residual = 0.040142, Final residual = 7.30721e-06, No Iterations 3
ExecutionTime = 0.14 s  ClockTime = 1 s

Time = 0.27

Courant Number mean: 0.0177321 max: 0.116447
smoothSolver:  Solving for Ux, Initial residual = 0.00718859, Final residual = 1.37031e-06, No Iterations 3
smoothSolver:  Solving for Uy, Initial residual = 0.00864568, Final residual = 1.80875e-06, No Iterations 3
GAMG:  Solving for p, Initial residual = 0.00950002, Final residual = 0.000244215, No Iterations 2
time step continuity errors : sum local = 1.21473e-07, global = -5.32808e-20, cumulative = -6.56569e-19
GAMG:  Solving for p, Initial residual = 0.000515631, Final residual = 6.67372e-07, No Iterations 6
time step continuity errors : sum local = 3.73812e-10, global = 1.28875e-19, cumulative = -5.27694e-19
smoothSolver:  Solving for epsilon, Initial residual = 0.0162654, Final residual = 1.73657e-06, No Iterations 3
smoothSolver:  Solving for k, Initial residual = 0.0390469, Final residual = 7.09428e-06, No Iterations 3
ExecutionTime = 0.14 s  ClockTime = 1 s

Time = 0.275

Courant Number mean: 0.0179805 max: 0.11746
smoothSolver:  Solving for Ux, Initial residual = 0.00705178, Final residual = 1.34579e-06, No Iterations 3
smoothSolver:  Solving for Uy, Initial residual = 0.0085, Final residual = 1.78444e-06, No Iterations 3
GAMG:  Solving for p, Initial residual = 0.0091361, Final residual = 0.000239954, No Iterations 2
time step continuity errors : sum local = 1.20003e-07, global = -8.97078e-20, cumulative = -6.17402e-19
GAMG:  Solving for p, Initial residual = 0.000506435, Final residual = 7.22678e-07, No Iterations 6
time step continuity errors : sum local = 4.05979e-10, global = 7.6783e-20, cumulative = -5.40619e-19
smoothSolver:  Solving for epsilon, Initial residual = 0.0159732, Final residual = 1.70126e-06, No Iterations 3
smoothSolver:  Solving for k, Initial residual = 0.0379927, Final residual = 6.88184e-06, No Iterations 3
ExecutionTime = 0.14 s  ClockTime = 1 s

Time = 0.28

Courant Number mean: 0.0182263 max: 0.118451
smoothSolver:  Solving for Ux, Initial residual = 0.00691647, Final residual = 1.33428e-06, No Iterations 3
smoothSolver:  Solving for Uy, Initial residual = 0.00836345, Final residual = 1.75494e-06, No Iterations 3
GAMG:  Solving for p, Initial residual = 0.00917415, Final residual = 0.00023684, No Iterations 2
time step continuity errors : sum local = 1.19195e-07, global = -1.55893e-19, cumulative = -6.96512e-19
GAMG:  Solving for p, Initial residual = 0.000491359, Final residual = 7.38186e-07, No Iterations 6
time step continuity errors : sum local = 4.16627e-10, global = -5.59174e-20, cumulative = -7.52429e-19
smoothSolver:  Solving for epsilon, Initial residual = 0.0156911, Final residual = 1.66329e-06, No Iterations 3
smoothSolver:  Solving for k, Initial residual = 0.0369726, Final residual = 6.67392e-06, No Iterations 3
ExecutionTime = 0.15 s  ClockTime = 1 s

Time = 0.285

Courant Number mean: 0.0184694 max: 0.119412
smoothSolver:  Solving for Ux, Initial residual = 0.0067864, Final residual = 1.30218e-06, No Iterations 3
smoothSolver:  Solving for Uy, Initial residual = 0.00822576, Final residual = 1.70023e-06, No Iterations 3
GAMG:  Solving for p, Initial residual = 0.0085943, Final residual = 0.000218586, No Iterations 2
time step continuity errors : sum local = 1.11031e-07, global = 5.90814e-20, cumulative = -6.93348e-19
GAMG:  Solving for p, Initial residual = 0.000466144, Final residual = 6.13666e-07, No Iterations 6
time step continuity errors : sum local = 3.49629e-10, global = 3.15156e-20, cumulative = -6.61832e-19
smoothSolver:  Solving for epsilon, Initial residual = 0.015415, Final residual = 1.6289e-06, No Iterations 3
smoothSolver:  Solving for k, Initial residual = 0.0359895, Final residual = 6.48379e-06, No Iterations 3
ExecutionTime = 0.15 s  ClockTime = 1 s

Time = 0.29

Courant Number mean: 0.0187105 max: 0.120572
smoothSolver:  Solving for Ux, Initial residual = 0.00666053, Final residual = 1.28347e-06, No Iterations 3
smoothSolver:  Solving for Uy, Initial residual = 0.00809078, Final residual = 1.67744e-06, No Iterations 3
GAMG:  Solving for p, Initial residual = 0.0108041, Final residual = 0.000312409, No Iterations 2
time step continuity errors : sum local = 1.56773e-07, global = -9.82277e-21, cumulative = -6.71655e-19
GAMG:  Solving for p, Initial residual = 0.000605078, Final residual = 6.25638e-07, No Iterations 6
time step continuity errors : sum local = 3.57456e-10, global = 6.04876e-21, cumulative = -6.65606e-19
smoothSolver:  Solving for epsilon, Initial residual = 0.0151445, Final residual = 1.59412e-06, No Iterations 3
smoothSolver:  Solving for k, Initial residual = 0.0350459, Final residual = 6.29852e-06, No Iterations 3
ExecutionTime = 0.15 s  ClockTime = 1 s

Time = 0.295

Courant Number mean: 0.01895 max: 0.121866
smoothSolver:  Solving for Ux, Initial residual = 0.00653344, Final residual = 1.26413e-06, No Iterations 3
smoothSolver:  Solving for Uy, Initial residual = 0.00798621, Final residual = 1.65607e-06, No Iterations 3
GAMG:  Solving for p, Initial residual = 0.00938995, Final residual = 0.000256142, No Iterations 2
time step continuity errors : sum local = 1.29924e-07, global = -3.51242e-20, cumulative = -7.0073e-19
GAMG:  Solving for p, Initial residual = 0.000517438, Final residual = 7.23922e-07, No Iterations 6
time step continuity errors : sum local = 4.13818e-10, global = -1.01226e-19, cumulative = -8.01956e-19
smoothSolver:  Solving for epsilon, Initial residual = 0.0148795, Final residual = 1.55895e-06, No Iterations 3
smoothSolver:  Solving for k, Initial residual = 0.0341461, Final residual = 6.12239e-06, No Iterations 3
ExecutionTime = 0.16 s  ClockTime = 1 s

Time = 0.3

Courant Number mean: 0.0191873 max: 0.123142
smoothSolver:  Solving for Ux, Initial residual = 0.00641182, Final residual = 1.26662e-06, No Iterations 3
smoothSolver:  Solving for Uy, Initial residual = 0.00787111, Final residual = 1.63538e-06, No Iterations 3
GAMG:  Solving for p, Initial residual = 0.00938837, Final residual = 0.000238294, No Iterations 2
time step continuity errors : sum local = 1.2188e-07, global = 4.06352e-21, cumulative = -7.97893e-19
GAMG:  Solving for p, Initial residual = 0.00051207, Final residual = 7.55377e-07, No Iterations 6
time step continuity errors : sum local = 4.33809e-10, global = -3.78539e-20, cumulative = -8.35747e-19
smoothSolver:  Solving for epsilon, Initial residual = 0.0146329, Final residual = 1.52652e-06, No Iterations 3
smoothSolver:  Solving for k, Initial residual = 0.0332886, Final residual = 5.97667e-06, No Iterations 3
ExecutionTime = 0.16 s  ClockTime = 1 s

Time = 0.305

Courant Number mean: 0.0194226 max: 0.124411
smoothSolver:  Solving for Ux, Initial residual = 0.00629496, Final residual = 1.2627e-06, No Iterations 3
smoothSolver:  Solving for Uy, Initial residual = 0.00775666, Final residual = 1.61525e-06, No Iterations 3
GAMG:  Solving for p, Initial residual = 0.00925056, Final residual = 0.000235464, No Iterations 2
time step continuity errors : sum local = 1.21195e-07, global = -2.0969e-20, cumulative = -8.56716e-19
GAMG:  Solving for p, Initial residual = 0.00049517, Final residual = 7.93737e-07, No Iterations 6
time step continuity errors : sum local = 4.57947e-10, global = 3.34181e-20, cumulative = -8.23298e-19
smoothSolver:  Solving for epsilon, Initial residual = 0.0143809, Final residual = 1.49328e-06, No Iterations 3
smoothSolver:  Solving for k, Initial residual = 0.0324629, Final residual = 5.82356e-06, No Iterations 3
ExecutionTime = 0.16 s  ClockTime = 1 s

Time = 0.31

Courant Number mean: 0.0196554 max: 0.125672
smoothSolver:  Solving for Ux, Initial residual = 0.00618099, Final residual = 1.27025e-06, No Iterations 3
smoothSolver:  Solving for Uy, Initial residual = 0.00764516, Final residual = 1.59609e-06, No Iterations 3
GAMG:  Solving for p, Initial residual = 0.0089928, Final residual = 0.000233812, No Iterations 2
time step continuity errors : sum local = 1.21099e-07, global = -5.02409e-20, cumulative = -8.73539e-19
GAMG:  Solving for p, Initial residual = 0.000491233, Final residual = 7.56849e-07, No Iterations 6
time step continuity errors : sum local = 4.39801e-10, global = -6.59263e-20, cumulative = -9.39465e-19
smoothSolver:  Solving for epsilon, Initial residual = 0.0141345, Final residual = 1.46149e-06, No Iterations 3
smoothSolver:  Solving for k, Initial residual = 0.0316696, Final residual = 5.66314e-06, No Iterations 3
ExecutionTime = 0.17 s  ClockTime = 2 s

Time = 0.315

Courant Number mean: 0.0198858 max: 0.126923
smoothSolver:  Solving for Ux, Initial residual = 0.00606915, Final residual = 1.26539e-06, No Iterations 3
smoothSolver:  Solving for Uy, Initial residual = 0.00753255, Final residual = 1.58053e-06, No Iterations 3
GAMG:  Solving for p, Initial residual = 0.00932204, Final residual = 0.000233937, No Iterations 2
time step continuity errors : sum local = 1.22054e-07, global = -9.3854e-20, cumulative = -1.03332e-18
GAMG:  Solving for p, Initial residual = 0.000493552, Final residual = 7.63036e-07, No Iterations 6
time step continuity errors : sum local = 4.46332e-10, global = -5.34255e-20, cumulative = -1.08674e-18
smoothSolver:  Solving for epsilon, Initial residual = 0.0138891, Final residual = 1.42955e-06, No Iterations 3
smoothSolver:  Solving for k, Initial residual = 0.0309085, Final residual = 5.52388e-06, No Iterations 3
ExecutionTime = 0.17 s  ClockTime = 2 s

Time = 0.32

Courant Number mean: 0.0201157 max: 0.128164
smoothSolver:  Solving for Ux, Initial residual = 0.00595994, Final residual = 1.26363e-06, No Iterations 3
smoothSolver:  Solving for Uy, Initial residual = 0.00742049, Final residual = 1.56289e-06, No Iterations 3
GAMG:  Solving for p, Initial residual = 0.00883867, Final residual = 0.000236839, No Iterations 2
time step continuity errors : sum local = 1.23812e-07, global = -5.9893e-20, cumulative = -1.14664e-18
GAMG:  Solving for p, Initial residual = 0.000496204, Final residual = 7.89139e-07, No Iterations 6
time step continuity errors : sum local = 4.63266e-10, global = 4.12039e-20, cumulative = -1.10543e-18
smoothSolver:  Solving for epsilon, Initial residual = 0.0136576, Final residual = 1.39973e-06, No Iterations 3
smoothSolver:  Solving for k, Initial residual = 0.0301782, Final residual = 5.39153e-06, No Iterations 3
ExecutionTime = 0.17 s  ClockTime = 2 s

Time = 0.325

Courant Number mean: 0.0203464 max: 0.129393
smoothSolver:  Solving for Ux, Initial residual = 0.00585199, Final residual = 1.25969e-06, No Iterations 3
smoothSolver:  Solving for Uy, Initial residual = 0.00731885, Final residual = 1.54547e-06, No Iterations 3
GAMG:  Solving for p, Initial residual = 0.00889407, Final residual = 0.000241612, No Iterations 2
time step continuity errors : sum local = 1.26842e-07, global = -8.77328e-20, cumulative = -1.19317e-18
GAMG:  Solving for p, Initial residual = 0.000500318, Final residual = 8.39461e-07, No Iterations 6
time step continuity errors : sum local = 4.95106e-10, global = 5.59794e-20, cumulative = -1.13719e-18
smoothSolver:  Solving for epsilon, Initial residual = 0.013418, Final residual = 1.36958e-06, No Iterations 3
smoothSolver:  Solving for k, Initial residual = 0.0294798, Final residual = 5.26209e-06, No Iterations 3
ExecutionTime = 0.18 s  ClockTime = 2 s

Time = 0.33

Courant Number mean: 0.0205774 max: 0.13061
smoothSolver:  Solving for Ux, Initial residual = 0.00574892, Final residual = 1.25127e-06, No Iterations 3
smoothSolver:  Solving for Uy, Initial residual = 0.00722435, Final residual = 1.52958e-06, No Iterations 3
GAMG:  Solving for p, Initial residual = 0.00890223, Final residual = 0.000231302, No Iterations 2
time step continuity errors : sum local = 1.22778e-07, global = 2.21891e-20, cumulative = -1.115e-18
GAMG:  Solving for p, Initial residual = 0.000478663, Final residual = 6.65709e-07, No Iterations 6
time step continuity errors : sum local = 3.97851e-10, global = 5.22054e-20, cumulative = -1.06279e-18
smoothSolver:  Solving for epsilon, Initial residual = 0.0131818, Final residual = 1.33808e-06, No Iterations 3
smoothSolver:  Solving for k, Initial residual = 0.0288067, Final residual = 5.12196e-06, No Iterations 3
ExecutionTime = 0.18 s  ClockTime = 2 s

Time = 0.335

Courant Number mean: 0.0208062 max: 0.131815
smoothSolver:  Solving for Ux, Initial residual = 0.00564694, Final residual = 1.24128e-06, No Iterations 3
smoothSolver:  Solving for Uy, Initial residual = 0.00712167, Final residual = 1.51321e-06, No Iterations 3
GAMG:  Solving for p, Initial residual = 0.00862627, Final residual = 0.000240139, No Iterations 2
time step continuity errors : sum local = 1.28135e-07, global = 3.16707e-20, cumulative = -1.03112e-18
GAMG:  Solving for p, Initial residual = 0.000482044, Final residual = 7.93368e-07, No Iterations 6
time step continuity errors : sum local = 4.75398e-10, global = 1.0195e-20, cumulative = -1.02093e-18
smoothSolver:  Solving for epsilon, Initial residual = 0.0129404, Final residual = 1.3052e-06, No Iterations 3
smoothSolver:  Solving for k, Initial residual = 0.0281567, Final residual = 4.99299e-06, No Iterations 3
ExecutionTime = 0.19 s  ClockTime = 2 s

Time = 0.34

Courant Number mean: 0.0210345 max: 0.133009
smoothSolver:  Solving for Ux, Initial residual = 0.00555241, Final residual = 1.22463e-06, No Iterations 3
smoothSolver:  Solving for Uy, Initial residual = 0.00703267, Final residual = 1.50079e-06, No Iterations 3
GAMG:  Solving for p, Initial residual = 0.00864053, Final residual = 0.000240191, No Iterations 2
time step continuity errors : sum local = 1.2894e-07, global = 1.08309e-19, cumulative = -9.12618e-19
GAMG:  Solving for p, Initial residual = 0.000474663, Final residual = 7.84868e-07, No Iterations 6
time step continuity errors : sum local = 4.73471e-10, global = 5.32291e-20, cumulative = -8.59389e-19
smoothSolver:  Solving for epsilon, Initial residual = 0.0127131, Final residual = 1.27645e-06, No Iterations 3
smoothSolver:  Solving for k, Initial residual = 0.0275325, Final residual = 4.86565e-06, No Iterations 3
ExecutionTime = 0.19 s  ClockTime = 2 s

Time = 0.345

Courant Number mean: 0.0212617 max: 0.134188
smoothSolver:  Solving for Ux, Initial residual = 0.00546146, Final residual = 1.19874e-06, No Iterations 3
smoothSolver:  Solving for Uy, Initial residual = 0.00694473, Final residual = 1.48751e-06, No Iterations 3
GAMG:  Solving for p, Initial residual = 0.00886951, Final residual = 0.000241273, No Iterations 2
time step continuity errors : sum local = 1.30302e-07, global = 5.59433e-20, cumulative = -8.03445e-19
GAMG:  Solving for p, Initial residual = 0.000471283, Final residual = 7.80358e-07, No Iterations 6
time step continuity errors : sum local = 4.73958e-10, global = 1.15754e-20, cumulative = -7.9187e-19
smoothSolver:  Solving for epsilon, Initial residual = 0.0124884, Final residual = 1.24861e-06, No Iterations 3
smoothSolver:  Solving for k, Initial residual = 0.0269289, Final residual = 4.74731e-06, No Iterations 3
ExecutionTime = 0.19 s  ClockTime = 2 s

Time = 0.35

Courant Number mean: 0.0214867 max: 0.13535
smoothSolver:  Solving for Ux, Initial residual = 0.00537649, Final residual = 1.1854e-06, No Iterations 3
smoothSolver:  Solving for Uy, Initial residual = 0.00684777, Final residual = 1.47476e-06, No Iterations 3
GAMG:  Solving for p, Initial residual = 0.00869122, Final residual = 0.000250047, No Iterations 2
time step continuity errors : sum local = 1.3592e-07, global = -5.90917e-20, cumulative = -8.50962e-19
GAMG:  Solving for p, Initial residual = 0.00047735, Final residual = 8.29517e-07, No Iterations 6
time step continuity errors : sum local = 5.06875e-10, global = -1.58302e-20, cumulative = -8.66792e-19
smoothSolver:  Solving for epsilon, Initial residual = 0.012266, Final residual = 1.22225e-06, No Iterations 3
smoothSolver:  Solving for k, Initial residual = 0.026353, Final residual = 4.6358e-06, No Iterations 3
ExecutionTime = 0.2 s  ClockTime = 2 s

Time = 0.355

Courant Number mean: 0.02171 max: 0.136499
smoothSolver:  Solving for Ux, Initial residual = 0.00529267, Final residual = 1.17183e-06, No Iterations 3
smoothSolver:  Solving for Uy, Initial residual = 0.00676247, Final residual = 1.46326e-06, No Iterations 3
GAMG:  Solving for p, Initial residual = 0.00894571, Final residual = 0.000260457, No Iterations 2
time step continuity errors : sum local = 1.42303e-07, global = 4.47297e-20, cumulative = -8.22062e-19
GAMG:  Solving for p, Initial residual = 0.000487575, Final residual = 8.68299e-07, No Iterations 6
time step continuity errors : sum local = 5.33898e-10, global = 3.83812e-20, cumulative = -7.83681e-19
smoothSolver:  Solving for epsilon, Initial residual = 0.0120455, Final residual = 1.19467e-06, No Iterations 3
smoothSolver:  Solving for k, Initial residual = 0.0257999, Final residual = 4.52412e-06, No Iterations 3
ExecutionTime = 0.2 s  ClockTime = 2 s

Time = 0.36

Courant Number mean: 0.021933 max: 0.137681
smoothSolver:  Solving for Ux, Initial residual = 0.00521205, Final residual = 1.1587e-06, No Iterations 3
smoothSolver:  Solving for Uy, Initial residual = 0.0066875, Final residual = 1.45379e-06, No Iterations 3
GAMG:  Solving for p, Initial residual = 0.0091484, Final residual = 0.000255606, No Iterations 2
time step continuity errors : sum local = 1.40873e-07, global = 3.02128e-20, cumulative = -7.53468e-19
GAMG:  Solving for p, Initial residual = 0.000475782, Final residual = 8.95431e-07, No Iterations 6
time step continuity errors : sum local = 5.54759e-10, global = -3.17224e-20, cumulative = -7.85191e-19
smoothSolver:  Solving for epsilon, Initial residual = 0.0118401, Final residual = 1.16801e-06, No Iterations 3
smoothSolver:  Solving for k, Initial residual = 0.0252675, Final residual = 4.41896e-06, No Iterations 3
ExecutionTime = 0.2 s  ClockTime = 2 s

Time = 0.365

Courant Number mean: 0.0221558 max: 0.138898
smoothSolver:  Solving for Ux, Initial residual = 0.00513544, Final residual = 1.14588e-06, No Iterations 3
smoothSolver:  Solving for Uy, Initial residual = 0.00661599, Final residual = 1.44538e-06, No Iterations 3
GAMG:  Solving for p, Initial residual = 0.00947401, Final residual = 0.000260086, No Iterations 2
time step continuity errors : sum local = 1.43769e-07, global = -7.63591e-21, cumulative = -7.92826e-19
GAMG:  Solving for p, Initial residual = 0.000480227, Final residual = 8.32576e-07, No Iterations 6
time step continuity errors : sum local = 5.19364e-10, global = 1.14906e-19, cumulative = -6.77921e-19
smoothSolver:  Solving for epsilon, Initial residual = 0.0116197, Final residual = 1.14228e-06, No Iterations 3
smoothSolver:  Solving for k, Initial residual = 0.0247696, Final residual = 4.3106e-06, No Iterations 3
ExecutionTime = 0.2 s  ClockTime = 2 s

Time = 0.37

Courant Number mean: 0.0223767 max: 0.140106
smoothSolver:  Solving for Ux, Initial residual = 0.00506329, Final residual = 1.13327e-06, No Iterations 3
smoothSolver:  Solving for Uy, Initial residual = 0.00653675, Final residual = 1.4355e-06, No Iterations 3
GAMG:  Solving for p, Initial residual = 0.00982702, Final residual = 0.000272468, No Iterations 2
time step continuity errors : sum local = 1.51663e-07, global = -6.26848e-20, cumulative = -7.40605e-19
GAMG:  Solving for p, Initial residual = 0.000502522, Final residual = 4.53176e-07, No Iterations 7
time step continuity errors : sum local = 2.86207e-10, global = 1.43516e-20, cumulative = -7.26254e-19
smoothSolver:  Solving for epsilon, Initial residual = 0.0114158, Final residual = 1.12124e-06, No Iterations 3
smoothSolver:  Solving for k, Initial residual = 0.0242777, Final residual = 4.21785e-06, No Iterations 3
ExecutionTime = 0.21 s  ClockTime = 2 s

Time = 0.375

Courant Number mean: 0.0225965 max: 0.141305
smoothSolver:  Solving for Ux, Initial residual = 0.00499462, Final residual = 1.11848e-06, No Iterations 3
smoothSolver:  Solving for Uy, Initial residual = 0.00646445, Final residual = 1.41853e-06, No Iterations 3
GAMG:  Solving for p, Initial residual = 0.00897498, Final residual = 0.00026349, No Iterations 2
time step continuity errors : sum local = 1.4852e-07, global = 1.26838e-19, cumulative = -5.99416e-19
GAMG:  Solving for p, Initial residual = 0.000463844, Final residual = 8.50291e-07, No Iterations 6
time step continuity errors : sum local = 5.40508e-10, global = 1.03966e-19, cumulative = -4.9545e-19
smoothSolver:  Solving for epsilon, Initial residual = 0.0112145, Final residual = 1.09543e-06, No Iterations 3
smoothSolver:  Solving for k, Initial residual = 0.0237955, Final residual = 4.1224e-06, No Iterations 3
ExecutionTime = 0.21 s  ClockTime = 2 s

Time = 0.38

Courant Number mean: 0.0228164 max: 0.142484
smoothSolver:  Solving for Ux, Initial residual = 0.00492751, Final residual = 1.10521e-06, No Iterations 3
smoothSolver:  Solving for Uy, Initial residual = 0.00640761, Final residual = 1.4076e-06, No Iterations 3
GAMG:  Solving for p, Initial residual = 0.00922232, Final residual = 0.000267221, No Iterations 2
time step continuity errors : sum local = 1.521e-07, global = 2.05813e-20, cumulative = -4.74869e-19
GAMG:  Solving for p, Initial residual = 0.000463401, Final residual = 7.85731e-07, No Iterations 6
time step continuity errors : sum local = 5.04448e-10, global = -7.07188e-20, cumulative = -5.45587e-19
smoothSolver:  Solving for epsilon, Initial residual = 0.0110146, Final residual = 1.07206e-06, No Iterations 3
smoothSolver:  Solving for k, Initial residual = 0.0233308, Final residual = 4.03627e-06, No Iterations 3
ExecutionTime = 0.22 s  ClockTime = 2 s

Time = 0.385

Courant Number mean: 0.0230346 max: 0.143634
smoothSolver:  Solving for Ux, Initial residual = 0.0048621, Final residual = 1.09292e-06, No Iterations 3
smoothSolver:  Solving for Uy, Initial residual = 0.00635876, Final residual = 1.40055e-06, No Iterations 3
GAMG:  Solving for p, Initial residual = 0.00967614, Final residual = 0.000280095, No Iterations 2
time step continuity errors : sum local = 1.59989e-07, global = 1.02193e-19, cumulative = -4.43394e-19
GAMG:  Solving for p, Initial residual = 0.000474827, Final residual = 9.7258e-07, No Iterations 6
time step continuity errors : sum local = 6.26786e-10, global = -2.44897e-20, cumulative = -4.67884e-19
smoothSolver:  Solving for epsilon, Initial residual = 0.010815, Final residual = 1.04394e-06, No Iterations 3
smoothSolver:  Solving for k, Initial residual = 0.0228788, Final residual = 3.92486e-06, No Iterations 3
ExecutionTime = 0.22 s  ClockTime = 2 s

Time = 0.39

Courant Number mean: 0.0232515 max: 0.144766
smoothSolver:  Solving for Ux, Initial residual = 0.00479776, Final residual = 1.07901e-06, No Iterations 3
smoothSolver:  Solving for Uy, Initial residual = 0.00630433, Final residual = 1.39036e-06, No Iterations 3
GAMG:  Solving for p, Initial residual = 0.00935089, Final residual = 0.00023984, No Iterations 2
time step continuity errors : sum local = 1.38561e-07, global = -1.48169e-20, cumulative = -4.82701e-19
GAMG:  Solving for p, Initial residual = 0.000439613, Final residual = 6.76563e-07, No Iterations 6
time step continuity errors : sum local = 4.39884e-10, global = -1.12238e-20, cumulative = -4.93925e-19
smoothSolver:  Solving for epsilon, Initial residual = 0.0106172, Final residual = 1.02207e-06, No Iterations 3
smoothSolver:  Solving for k, Initial residual = 0.0224355, Final residual = 3.84158e-06, No Iterations 3
ExecutionTime = 0.23 s  ClockTime = 2 s

Time = 0.395

Courant Number mean: 0.023469 max: 0.145893
smoothSolver:  Solving for Ux, Initial residual = 0.00473549, Final residual = 1.06314e-06, No Iterations 3
smoothSolver:  Solving for Uy, Initial residual = 0.00619892, Final residual = 1.36956e-06, No Iterations 3
GAMG:  Solving for p, Initial residual = 0.008007, Final residual = 0.000283922, No Iterations 2
time step continuity errors : sum local = 1.63782e-07, global = 1.94181e-20, cumulative = -4.74507e-19
GAMG:  Solving for p, Initial residual = 0.000456281, Final residual = 9.18729e-07, No Iterations 6
time step continuity errors : sum local = 5.96836e-10, global = 1.3131e-19, cumulative = -3.43197e-19
smoothSolver:  Solving for epsilon, Initial residual = 0.0104208, Final residual = 9.99902e-07, No Iterations 3
smoothSolver:  Solving for k, Initial residual = 0.0220011, Final residual = 3.75131e-06, No Iterations 3
ExecutionTime = 0.23 s  ClockTime = 2 s

Time = 0.4

Courant Number mean: 0.0236854 max: 0.147005
smoothSolver:  Solving for Ux, Initial residual = 0.00467274, Final residual = 1.04979e-06, No Iterations 3
smoothSolver:  Solving for Uy, Initial residual = 0.0061337, Final residual = 1.35892e-06, No Iterations 3
GAMG:  Solving for p, Initial residual = 0.00985732, Final residual = 0.000267534, No Iterations 2
time step continuity errors : sum local = 1.55454e-07, global = 1.12062e-19, cumulative = -2.31135e-19
GAMG:  Solving for p, Initial residual = 0.000460264, Final residual = 8.31412e-07, No Iterations 6
time step continuity errors : sum local = 5.42975e-10, global = -2.94373e-20, cumulative = -2.60572e-19
smoothSolver:  Solving for epsilon, Initial residual = 0.0102277, Final residual = 9.79142e-07, No Iterations 3
smoothSolver:  Solving for k, Initial residual = 0.021565, Final residual = 3.66486e-06, No Iterations 3
ExecutionTime = 0.23 s  ClockTime = 2 s

Time = 0.405

Courant Number mean: 0.0238998 max: 0.148107
smoothSolver:  Solving for Ux, Initial residual = 0.00461329, Final residual = 1.03595e-06, No Iterations 3
smoothSolver:  Solving for Uy, Initial residual = 0.00604258, Final residual = 1.34261e-06, No Iterations 3
GAMG:  Solving for p, Initial residual = 0.00786062, Final residual = 0.000290654, No Iterations 2
time step continuity errors : sum local = 1.69094e-07, global = 4.21655e-20, cumulative = -2.18406e-19
GAMG:  Solving for p, Initial residual = 0.000461781, Final residual = 9.01543e-07, No Iterations 6
time step continuity errors : sum local = 5.92338e-10, global = 9.13931e-20, cumulative = -1.27013e-19
smoothSolver:  Solving for epsilon, Initial residual = 0.0100511, Final residual = 9.59781e-07, No Iterations 3
smoothSolver:  Solving for k, Initial residual = 0.0211183, Final residual = 3.57619e-06, No Iterations 3
ExecutionTime = 0.25 s  ClockTime = 2 s

Time = 0.41

Courant Number mean: 0.0241132 max: 0.14919
smoothSolver:  Solving for Ux, Initial residual = 0.00455117, Final residual = 1.02391e-06, No Iterations 3
smoothSolver:  Solving for Uy, Initial residual = 0.00599551, Final residual = 1.33919e-06, No Iterations 3
GAMG:  Solving for p, Initial residual = 0.00812314, Final residual = 0.000291475, No Iterations 2
time step continuity errors : sum local = 1.70379e-07, global = 9.26442e-20, cumulative = -3.4369e-20
GAMG:  Solving for p, Initial residual = 0.000443982, Final residual = 9.4292e-07, No Iterations 6
time step continuity errors : sum local = 6.21611e-10, global = 2.76433e-20, cumulative = -6.72569e-21
smoothSolver:  Solving for epsilon, Initial residual = 0.00986579, Final residual = 9.40029e-07, No Iterations 3
smoothSolver:  Solving for k, Initial residual = 0.0206845, Final residual = 3.47965e-06, No Iterations 3
ExecutionTime = 0.26 s  ClockTime = 2 s

Time = 0.415

Courant Number mean: 0.0243248 max: 0.150256
smoothSolver:  Solving for Ux, Initial residual = 0.00449142, Final residual = 1.01201e-06, No Iterations 3
smoothSolver:  Solving for Uy, Initial residual = 0.00593475, Final residual = 1.3325e-06, No Iterations 3
GAMG:  Solving for p, Initial residual = 0.0078431, Final residual = 0.000292946, No Iterations 2
time step continuity errors : sum local = 1.72621e-07, global = -8.08154e-20, cumulative = -8.75411e-20
GAMG:  Solving for p, Initial residual = 0.00044863, Final residual = 9.58728e-07, No Iterations 6
time step continuity errors : sum local = 6.37101e-10, global = 2.95123e-20, cumulative = -5.80288e-20
smoothSolver:  Solving for epsilon, Initial residual = 0.00968324, Final residual = 9.19421e-07, No Iterations 3
smoothSolver:  Solving for k, Initial residual = 0.0202666, Final residual = 3.39034e-06, No Iterations 3
ExecutionTime = 0.26 s  ClockTime = 2 s

Time = 0.42

Courant Number mean: 0.0245346 max: 0.151305
smoothSolver:  Solving for Ux, Initial residual = 0.00443099, Final residual = 9.99737e-07, No Iterations 3
smoothSolver:  Solving for Uy, Initial residual = 0.00588137, Final residual = 1.32811e-06, No Iterations 3
GAMG:  Solving for p, Initial residual = 0.00790964, Final residual = 0.000291677, No Iterations 2
time step continuity errors : sum local = 1.73117e-07, global = -1.16281e-19, cumulative = -1.7431e-19
GAMG:  Solving for p, Initial residual = 0.00044321, Final residual = 9.67349e-07, No Iterations 6
time step continuity errors : sum local = 6.47437e-10, global = 1.32349e-20, cumulative = -1.61075e-19
smoothSolver:  Solving for epsilon, Initial residual = 0.00950253, Final residual = 8.99198e-07, No Iterations 3
smoothSolver:  Solving for k, Initial residual = 0.0198583, Final residual = 3.30971e-06, No Iterations 3
ExecutionTime = 0.27 s  ClockTime = 2 s

Time = 0.425

[...]
smoothSolver:  Solving for k, Initial residual = 0.000137216, Final residual = 8.87657e-06, No Iterations 1
ExecutionTime = 5.28 s  ClockTime = 47 s

Time = 9.9

Courant Number mean: 0.122662 max: 0.251808
smoothSolver:  Solving for Ux, Initial residual = 3.44763e-05, Final residual = 1.77609e-06, No Iterations 1
smoothSolver:  Solving for Uy, Initial residual = 3.32209e-05, Final residual = 1.75956e-06, No Iterations 1
GAMG:  Solving for p, Initial residual = 4.60043e-05, Final residual = 4.10119e-06, No Iterations 2
time step continuity errors : sum local = 6.77279e-09, global = -2.19699e-19, cumulative = 1.77161e-17
GAMG:  Solving for p, Initial residual = 3.9799e-06, Final residual = 3.64347e-07, No Iterations 2
time step continuity errors : sum local = 6.64593e-10, global = 1.98192e-19, cumulative = 1.79143e-17
smoothSolver:  Solving for epsilon, Initial residual = 7.1768e-05, Final residual = 4.38348e-06, No Iterations 1
smoothSolver:  Solving for k, Initial residual = 0.000137026, Final residual = 8.84736e-06, No Iterations 1
ExecutionTime = 5.28 s  ClockTime = 47 s

Time = 9.905

Courant Number mean: 0.12267 max: 0.251813
smoothSolver:  Solving for Ux, Initial residual = 3.44108e-05, Final residual = 1.77324e-06, No Iterations 1
smoothSolver:  Solving for Uy, Initial residual = 3.31556e-05, Final residual = 1.75653e-06, No Iterations 1
GAMG:  Solving for p, Initial residual = 4.58896e-05, Final residual = 4.09449e-06, No Iterations 2
time step continuity errors : sum local = 6.76157e-09, global = 2.54772e-19, cumulative = 1.8169e-17
GAMG:  Solving for p, Initial residual = 3.97406e-06, Final residual = 3.63798e-07, No Iterations 2
time step continuity errors : sum local = 6.63569e-10, global = 6.36267e-19, cumulative = 1.88053e-17
smoothSolver:  Solving for epsilon, Initial residual = 7.16229e-05, Final residual = 4.36777e-06, No Iterations 1
smoothSolver:  Solving for k, Initial residual = 0.000136834, Final residual = 8.81814e-06, No Iterations 1
ExecutionTime = 5.28 s  ClockTime = 47 s

Time = 9.91

Courant Number mean: 0.122678 max: 0.251818
smoothSolver:  Solving for Ux, Initial residual = 3.43452e-05, Final residual = 1.7704e-06, No Iterations 1
smoothSolver:  Solving for Uy, Initial residual = 3.30903e-05, Final residual = 1.75351e-06, No Iterations 1
GAMG:  Solving for p, Initial residual = 4.57745e-05, Final residual = 4.08782e-06, No Iterations 2
time step continuity errors : sum local = 6.75038e-09, global = 1.12497e-19, cumulative = 1.89178e-17
GAMG:  Solving for p, Initial residual = 3.96828e-06, Final residual = 3.63247e-07, No Iterations 2
time step continuity errors : sum local = 6.62543e-10, global = 2.34588e-19, cumulative = 1.91524e-17
smoothSolver:  Solving for epsilon, Initial residual = 7.14799e-05, Final residual = 4.35212e-06, No Iterations 1
smoothSolver:  Solving for k, Initial residual = 0.000136641, Final residual = 8.7889e-06, No Iterations 1
ExecutionTime = 5.28 s  ClockTime = 47 s

Time = 9.915

Courant Number mean: 0.122686 max: 0.251823
smoothSolver:  Solving for Ux, Initial residual = 3.42794e-05, Final residual = 1.76755e-06, No Iterations 1
smoothSolver:  Solving for Uy, Initial residual = 3.30252e-05, Final residual = 1.75049e-06, No Iterations 1
GAMG:  Solving for p, Initial residual = 4.56604e-05, Final residual = 4.08116e-06, No Iterations 2
time step continuity errors : sum local = 6.73921e-09, global = -3.72893e-19, cumulative = 1.87795e-17
GAMG:  Solving for p, Initial residual = 3.96258e-06, Final residual = 3.62696e-07, No Iterations 2
time step continuity errors : sum local = 6.61515e-10, global = 6.23032e-19, cumulative = 1.94025e-17
smoothSolver:  Solving for epsilon, Initial residual = 7.1337e-05, Final residual = 4.33653e-06, No Iterations 1
smoothSolver:  Solving for k, Initial residual = 0.000136448, Final residual = 8.75965e-06, No Iterations 1
ExecutionTime = 5.28 s  ClockTime = 47 s

Time = 9.92

Courant Number mean: 0.122694 max: 0.251828
smoothSolver:  Solving for Ux, Initial residual = 3.42137e-05, Final residual = 1.76471e-06, No Iterations 1
smoothSolver:  Solving for Uy, Initial residual = 3.29605e-05, Final residual = 1.74748e-06, No Iterations 1
GAMG:  Solving for p, Initial residual = 4.55469e-05, Final residual = 4.0745e-06, No Iterations 2
time step continuity errors : sum local = 6.72806e-09, global = 4.74802e-19, cumulative = 1.98773e-17
GAMG:  Solving for p, Initial residual = 3.95685e-06, Final residual = 3.62144e-07, No Iterations 2
time step continuity errors : sum local = 6.60486e-10, global = 7.03434e-19, cumulative = 2.05808e-17
smoothSolver:  Solving for epsilon, Initial residual = 7.11942e-05, Final residual = 4.32101e-06, No Iterations 1
smoothSolver:  Solving for k, Initial residual = 0.000136256, Final residual = 8.73044e-06, No Iterations 1
ExecutionTime = 5.29 s  ClockTime = 47 s

Time = 9.925

Courant Number mean: 0.122702 max: 0.251833
smoothSolver:  Solving for Ux, Initial residual = 3.4148e-05, Final residual = 1.76188e-06, No Iterations 1
smoothSolver:  Solving for Uy, Initial residual = 3.28962e-05, Final residual = 1.74448e-06, No Iterations 1
GAMG:  Solving for p, Initial residual = 4.54331e-05, Final residual = 4.06762e-06, No Iterations 2
time step continuity errors : sum local = 6.71657e-09, global = -6.61742e-22, cumulative = 2.05801e-17
GAMG:  Solving for p, Initial residual = 3.95072e-06, Final residual = 3.61607e-07, No Iterations 2
time step continuity errors : sum local = 6.5948e-10, global = -1.65436e-20, cumulative = 2.05636e-17
smoothSolver:  Solving for epsilon, Initial residual = 7.10517e-05, Final residual = 4.30557e-06, No Iterations 1
smoothSolver:  Solving for k, Initial residual = 0.000136068, Final residual = 8.70121e-06, No Iterations 1
ExecutionTime = 5.29 s  ClockTime = 47 s

Time = 9.93

Courant Number mean: 0.122711 max: 0.251838
smoothSolver:  Solving for Ux, Initial residual = 3.40822e-05, Final residual = 1.75904e-06, No Iterations 1
smoothSolver:  Solving for Uy, Initial residual = 3.28319e-05, Final residual = 1.74151e-06, No Iterations 1
GAMG:  Solving for p, Initial residual = 4.53215e-05, Final residual = 4.06094e-06, No Iterations 2
time step continuity errors : sum local = 6.70539e-09, global = -5.79026e-20, cumulative = 2.05057e-17
GAMG:  Solving for p, Initial residual = 3.94492e-06, Final residual = 3.61066e-07, No Iterations 2
time step continuity errors : sum local = 6.58469e-10, global = 5.19469e-20, cumulative = 2.05576e-17
smoothSolver:  Solving for epsilon, Initial residual = 7.09095e-05, Final residual = 4.29019e-06, No Iterations 1
smoothSolver:  Solving for k, Initial residual = 0.000135882, Final residual = 8.67196e-06, No Iterations 1
ExecutionTime = 5.29 s  ClockTime = 47 s

Time = 9.935

Courant Number mean: 0.122719 max: 0.251843
smoothSolver:  Solving for Ux, Initial residual = 3.40164e-05, Final residual = 1.75621e-06, No Iterations 1
smoothSolver:  Solving for Uy, Initial residual = 3.27678e-05, Final residual = 1.73855e-06, No Iterations 1
GAMG:  Solving for p, Initial residual = 4.52109e-05, Final residual = 4.05437e-06, No Iterations 2
time step continuity errors : sum local = 6.69437e-09, global = 8.37107e-20, cumulative = 2.06413e-17
GAMG:  Solving for p, Initial residual = 3.93929e-06, Final residual = 3.60514e-07, No Iterations 2
time step continuity errors : sum local = 6.57443e-10, global = -2.00509e-19, cumulative = 2.04408e-17
smoothSolver:  Solving for epsilon, Initial residual = 7.07679e-05, Final residual = 4.27492e-06, No Iterations 1
smoothSolver:  Solving for k, Initial residual = 0.000135695, Final residual = 8.6427e-06, No Iterations 1
ExecutionTime = 5.29 s  ClockTime = 47 s

Time = 9.94

Courant Number mean: 0.122727 max: 0.251848
smoothSolver:  Solving for Ux, Initial residual = 3.39504e-05, Final residual = 1.75338e-06, No Iterations 1
smoothSolver:  Solving for Uy, Initial residual = 3.27037e-05, Final residual = 1.7356e-06, No Iterations 1
GAMG:  Solving for p, Initial residual = 4.50995e-05, Final residual = 4.04777e-06, No Iterations 2
time step continuity errors : sum local = 6.68329e-09, global = 3.35174e-19, cumulative = 2.0776e-17
GAMG:  Solving for p, Initial residual = 3.93357e-06, Final residual = 3.59961e-07, No Iterations 2
time step continuity errors : sum local = 6.56413e-10, global = -2.74293e-19, cumulative = 2.05017e-17
smoothSolver:  Solving for epsilon, Initial residual = 7.06261e-05, Final residual = 4.25978e-06, No Iterations 1
smoothSolver:  Solving for k, Initial residual = 0.000135511, Final residual = 8.61342e-06, No Iterations 1
ExecutionTime = 5.29 s  ClockTime = 47 s

Time = 9.945

Courant Number mean: 0.122735 max: 0.251853
smoothSolver:  Solving for Ux, Initial residual = 3.38844e-05, Final residual = 1.75056e-06, No Iterations 1
smoothSolver:  Solving for Uy, Initial residual = 3.26398e-05, Final residual = 1.73265e-06, No Iterations 1
GAMG:  Solving for p, Initial residual = 4.49911e-05, Final residual = 4.04116e-06, No Iterations 2
time step continuity errors : sum local = 6.6722e-09, global = 3.25247e-19, cumulative = 2.08269e-17
GAMG:  Solving for p, Initial residual = 3.92781e-06, Final residual = 3.59407e-07, No Iterations 2
time step continuity errors : sum local = 6.55381e-10, global = -6.08805e-20, cumulative = 2.07661e-17
smoothSolver:  Solving for epsilon, Initial residual = 7.04855e-05, Final residual = 4.24466e-06, No Iterations 1
smoothSolver:  Solving for k, Initial residual = 0.00013533, Final residual = 8.58413e-06, No Iterations 1
ExecutionTime = 5.3 s  ClockTime = 47 s

Time = 9.95

Courant Number mean: 0.122743 max: 0.251858
smoothSolver:  Solving for Ux, Initial residual = 3.38183e-05, Final residual = 1.74775e-06, No Iterations 1
smoothSolver:  Solving for Uy, Initial residual = 3.2576e-05, Final residual = 1.72971e-06, No Iterations 1
GAMG:  Solving for p, Initial residual = 4.48965e-05, Final residual = 4.03456e-06, No Iterations 2
time step continuity errors : sum local = 6.66113e-09, global = -6.25349e-20, cumulative = 2.07035e-17
GAMG:  Solving for p, Initial residual = 3.92203e-06, Final residual = 3.58852e-07, No Iterations 2
time step continuity errors : sum local = 6.54348e-10, global = -4.3245e-19, cumulative = 2.02711e-17
smoothSolver:  Solving for epsilon, Initial residual = 7.03446e-05, Final residual = 4.22958e-06, No Iterations 1
smoothSolver:  Solving for k, Initial residual = 0.00013515, Final residual = 8.55482e-06, No Iterations 1
ExecutionTime = 5.3 s  ClockTime = 47 s

Time = 9.955

Courant Number mean: 0.122751 max: 0.251863
smoothSolver:  Solving for Ux, Initial residual = 3.37522e-05, Final residual = 1.74496e-06, No Iterations 1
smoothSolver:  Solving for Uy, Initial residual = 3.25123e-05, Final residual = 1.72679e-06, No Iterations 1
GAMG:  Solving for p, Initial residual = 4.48031e-05, Final residual = 4.02795e-06, No Iterations 2
time step continuity errors : sum local = 6.65004e-09, global = -2.72639e-19, cumulative = 1.99984e-17
GAMG:  Solving for p, Initial residual = 3.91624e-06, Final residual = 3.58295e-07, No Iterations 2
time step continuity errors : sum local = 6.53312e-10, global = 1.71061e-19, cumulative = 2.01695e-17
smoothSolver:  Solving for epsilon, Initial residual = 7.02036e-05, Final residual = 4.21452e-06, No Iterations 1
smoothSolver:  Solving for k, Initial residual = 0.000134969, Final residual = 8.52553e-06, No Iterations 1
ExecutionTime = 5.3 s  ClockTime = 47 s

Time = 9.96

Courant Number mean: 0.122759 max: 0.251868
smoothSolver:  Solving for Ux, Initial residual = 3.36861e-05, Final residual = 1.74217e-06, No Iterations 1
smoothSolver:  Solving for Uy, Initial residual = 3.24487e-05, Final residual = 1.72388e-06, No Iterations 1
GAMG:  Solving for p, Initial residual = 4.47105e-05, Final residual = 4.02139e-06, No Iterations 2
time step continuity errors : sum local = 6.63902e-09, global = 2.77933e-20, cumulative = 2.01973e-17
GAMG:  Solving for p, Initial residual = 3.91043e-06, Final residual = 3.57737e-07, No Iterations 2
time step continuity errors : sum local = 6.52274e-10, global = -1.21099e-19, cumulative = 2.00762e-17
smoothSolver:  Solving for epsilon, Initial residual = 7.00624e-05, Final residual = 4.1995e-06, No Iterations 1
smoothSolver:  Solving for k, Initial residual = 0.000134786, Final residual = 8.49636e-06, No Iterations 1
ExecutionTime = 5.3 s  ClockTime = 47 s

Time = 9.965

Courant Number mean: 0.122767 max: 0.251873
smoothSolver:  Solving for Ux, Initial residual = 3.36201e-05, Final residual = 1.73938e-06, No Iterations 1
smoothSolver:  Solving for Uy, Initial residual = 3.23852e-05, Final residual = 1.72097e-06, No Iterations 1
GAMG:  Solving for p, Initial residual = 4.46178e-05, Final residual = 4.01484e-06, No Iterations 2
time step continuity errors : sum local = 6.62802e-09, global = 1.62458e-19, cumulative = 2.02386e-17
GAMG:  Solving for p, Initial residual = 3.90459e-06, Final residual = 3.57178e-07, No Iterations 2
time step continuity errors : sum local = 6.51234e-10, global = -9.09899e-20, cumulative = 2.01477e-17
smoothSolver:  Solving for epsilon, Initial residual = 6.99224e-05, Final residual = 4.1845e-06, No Iterations 1
smoothSolver:  Solving for k, Initial residual = 0.000134603, Final residual = 8.46717e-06, No Iterations 1
ExecutionTime = 5.31 s  ClockTime = 47 s

Time = 9.97

Courant Number mean: 0.122775 max: 0.251878
smoothSolver:  Solving for Ux, Initial residual = 3.35541e-05, Final residual = 1.7366e-06, No Iterations 1
smoothSolver:  Solving for Uy, Initial residual = 3.23219e-05, Final residual = 1.71807e-06, No Iterations 1
GAMG:  Solving for p, Initial residual = 4.45252e-05, Final residual = 4.00828e-06, No Iterations 2
time step continuity errors : sum local = 6.617e-09, global = 1.33011e-19, cumulative = 2.02807e-17
GAMG:  Solving for p, Initial residual = 3.89873e-06, Final residual = 3.56616e-07, No Iterations 2
time step continuity errors : sum local = 6.5019e-10, global = -1.35988e-19, cumulative = 2.01447e-17
smoothSolver:  Solving for epsilon, Initial residual = 6.97825e-05, Final residual = 4.1694e-06, No Iterations 1
smoothSolver:  Solving for k, Initial residual = 0.000134418, Final residual = 8.43798e-06, No Iterations 1
ExecutionTime = 5.31 s  ClockTime = 47 s

Time = 9.975

Courant Number mean: 0.122783 max: 0.251883
smoothSolver:  Solving for Ux, Initial residual = 3.34882e-05, Final residual = 1.73382e-06, No Iterations 1
smoothSolver:  Solving for Uy, Initial residual = 3.22587e-05, Final residual = 1.71517e-06, No Iterations 1
GAMG:  Solving for p, Initial residual = 4.44325e-05, Final residual = 4.00169e-06, No Iterations 2
time step continuity errors : sum local = 6.60593e-09, global = 2.74624e-19, cumulative = 2.04193e-17
GAMG:  Solving for p, Initial residual = 3.89284e-06, Final residual = 3.5605e-07, No Iterations 2
time step continuity errors : sum local = 6.49138e-10, global = 3.43776e-19, cumulative = 2.07631e-17
smoothSolver:  Solving for epsilon, Initial residual = 6.96499e-05, Final residual = 4.1549e-06, No Iterations 1
smoothSolver:  Solving for k, Initial residual = 0.000134233, Final residual = 8.40877e-06, No Iterations 1
ExecutionTime = 5.32 s  ClockTime = 47 s

Time = 9.98

Courant Number mean: 0.122791 max: 0.251888
smoothSolver:  Solving for Ux, Initial residual = 3.34222e-05, Final residual = 1.73105e-06, No Iterations 1
smoothSolver:  Solving for Uy, Initial residual = 3.21955e-05, Final residual = 1.71228e-06, No Iterations 1
GAMG:  Solving for p, Initial residual = 4.43411e-05, Final residual = 3.99512e-06, No Iterations 2
time step continuity errors : sum local = 6.59489e-09, global = 1.07864e-19, cumulative = 2.08709e-17
GAMG:  Solving for p, Initial residual = 3.88708e-06, Final residual = 3.55483e-07, No Iterations 2
time step continuity errors : sum local = 6.48087e-10, global = 2.44184e-19, cumulative = 2.11151e-17
smoothSolver:  Solving for epsilon, Initial residual = 6.95228e-05, Final residual = 4.14079e-06, No Iterations 1
smoothSolver:  Solving for k, Initial residual = 0.000134052, Final residual = 8.37953e-06, No Iterations 1
ExecutionTime = 5.32 s  ClockTime = 47 s

Time = 9.985

Courant Number mean: 0.122798 max: 0.251893
smoothSolver:  Solving for Ux, Initial residual = 3.33563e-05, Final residual = 1.72828e-06, No Iterations 1
smoothSolver:  Solving for Uy, Initial residual = 3.21325e-05, Final residual = 1.7094e-06, No Iterations 1
GAMG:  Solving for p, Initial residual = 4.42509e-05, Final residual = 3.98854e-06, No Iterations 2
time step continuity errors : sum local = 6.58385e-09, global = -3.73886e-20, cumulative = 2.10777e-17
GAMG:  Solving for p, Initial residual = 3.88143e-06, Final residual = 3.54914e-07, No Iterations 2
time step continuity errors : sum local = 6.47031e-10, global = 2.39221e-19, cumulative = 2.1317e-17
smoothSolver:  Solving for epsilon, Initial residual = 6.93913e-05, Final residual = 4.12643e-06, No Iterations 1
smoothSolver:  Solving for k, Initial residual = 0.000133873, Final residual = 8.35024e-06, No Iterations 1
ExecutionTime = 5.33 s  ClockTime = 47 s

Time = 9.99

Courant Number mean: 0.122806 max: 0.251898
smoothSolver:  Solving for Ux, Initial residual = 3.32904e-05, Final residual = 1.72551e-06, No Iterations 1
smoothSolver:  Solving for Uy, Initial residual = 3.20696e-05, Final residual = 1.70653e-06, No Iterations 1
GAMG:  Solving for p, Initial residual = 4.41605e-05, Final residual = 3.98196e-06, No Iterations 2
time step continuity errors : sum local = 6.57279e-09, global = -9.09899e-20, cumulative = 2.1226e-17
GAMG:  Solving for p, Initial residual = 3.87573e-06, Final residual = 3.54342e-07, No Iterations 2
time step continuity errors : sum local = 6.45969e-10, global = 6.41892e-20, cumulative = 2.12902e-17
smoothSolver:  Solving for epsilon, Initial residual = 6.9257e-05, Final residual = 4.11195e-06, No Iterations 1
smoothSolver:  Solving for k, Initial residual = 0.000133693, Final residual = 8.32092e-06, No Iterations 1
ExecutionTime = 5.34 s  ClockTime = 47 s

Time = 9.995

Courant Number mean: 0.122814 max: 0.251903
smoothSolver:  Solving for Ux, Initial residual = 3.32245e-05, Final residual = 1.72275e-06, No Iterations 1
smoothSolver:  Solving for Uy, Initial residual = 3.20068e-05, Final residual = 1.70365e-06, No Iterations 1
GAMG:  Solving for p, Initial residual = 4.407e-05, Final residual = 3.97537e-06, No Iterations 2
time step continuity errors : sum local = 6.56173e-09, global = 4.09951e-19, cumulative = 2.17001e-17
GAMG:  Solving for p, Initial residual = 3.86998e-06, Final residual = 3.53767e-07, No Iterations 2
time step continuity errors : sum local = 6.44903e-10, global = 5.62814e-19, cumulative = 2.22629e-17
smoothSolver:  Solving for epsilon, Initial residual = 6.9121e-05, Final residual = 4.09738e-06, No Iterations 1
smoothSolver:  Solving for k, Initial residual = 0.000133511, Final residual = 8.29158e-06, No Iterations 1
ExecutionTime = 5.35 s  ClockTime = 47 s

Time = 10

Courant Number mean: 0.122822 max: 0.251908
smoothSolver:  Solving for Ux, Initial residual = 3.31586e-05, Final residual = 1.72e-06, No Iterations 1
smoothSolver:  Solving for Uy, Initial residual = 3.1944e-05, Final residual = 1.70078e-06, No Iterations 1
GAMG:  Solving for p, Initial residual = 4.39803e-05, Final residual = 3.96878e-06, No Iterations 2
time step continuity errors : sum local = 6.55067e-09, global = 1.58819e-20, cumulative = 2.22788e-17
GAMG:  Solving for p, Initial residual = 3.86418e-06, Final residual = 3.53188e-07, No Iterations 2
time step continuity errors : sum local = 6.43833e-10, global = 2.80911e-19, cumulative = 2.25597e-17
smoothSolver:  Solving for epsilon, Initial residual = 6.89838e-05, Final residual = 4.08276e-06, No Iterations 1
smoothSolver:  Solving for k, Initial residual = 0.000133332, Final residual = 8.26223e-06, No Iterations 1
ExecutionTime = 5.36 s  ClockTime = 47 s

End

